<?xml version="1.0" encoding="UTF-8"?>

<net version="1.9" junctionCornerDetail="5" limitTurnSpeed="5.50" xmlns:xsi="http://www.w3.org/2001/XMLSchema-instance" xsi:noNamespaceSchemaLocation="http://sumo.dlr.de/xsd/net_file.xsd">

    <location netOffset="0.00,0.00" convBoundary="-800.00,700.00,300.00,800.10" origBoundary="-10000000000.00,-10000000000.00,10000000000.00,10000000000.00" projParameter="!"/>

    <edge id=":J1_0" function="internal">
        <lane id=":J1_0_0" index="0" speed="6.53" length="9.11" shape="-707.20,795.29 -704.74,794.94 -702.99,793.87 -701.94,792.09 -701.59,789.60"/>
    </edge>
    <edge id=":J1_1" function="internal">
        <lane id=":J1_1_0" index="0" speed="13.89" length="11.20" shape="-707.20,795.29 -695.99,795.20"/>
        <lane id=":J1_1_1" index="1" speed="13.89" length="11.20" shape="-707.20,798.49 -695.99,798.40"/>
    </edge>
    <edge id=":J2_0" function="internal">
        <lane id=":J2_0_0" index="0" speed="3.95" length="2.66" shape="-701.50,700.10 -701.40,699.35 -701.10,698.82 -700.60,698.51 -699.90,698.40"/>
    </edge>
    <edge id=":J3_0" function="internal">
        <lane id=":J3_0_0" index="0" speed="3.86" length="2.50" shape="-600.00,698.50 -599.30,698.59 -598.80,698.88 -598.50,699.34 -598.40,700.00"/>
    </edge>
    <edge id=":J4_0" function="internal">
        <lane id=":J4_0_0" index="0" speed="6.51" length="9.03" shape="-598.40,789.60 -598.05,792.05 -597.00,793.80 -595.25,794.85 -592.80,795.20"/>
    </edge>
    <edge id=":J4_1" function="internal">
        <lane id=":J4_1_0" index="0" speed="13.89" length="11.20" shape="-604.00,795.20 -592.80,795.20"/>
        <lane id=":J4_1_1" index="1" speed="13.89" length="11.20" shape="-604.00,798.40 -592.80,798.40"/>
    </edge>

    <edge id="E1" from="J1" to="J2" priority="-1" shape="-700.00,800.00 -699.90,700.10">
        <lane id="E1_0" index="0" speed="13.89" length="89.50" shape="-701.59,789.60 -701.50,700.10"/>
    </edge>
    <edge id="E2" from="J2" to="J3" priority="-1" shape="-700.00,700.00 -599.90,700.10">
        <lane id="E2_0" index="0" speed="13.89" length="99.90" shape="-699.90,698.40 -600.00,698.50"/>
    </edge>
    <edge id="E3" from="J3" to="J4" priority="-1">
        <lane id="E3_0" index="0" speed="13.89" length="89.60" shape="-598.40,700.00 -598.40,789.60"/>
    </edge>
    <edge id="closed" from="J1" to="J4" priority="-1">
        <lane id="closed_0" index="0" speed="13.89" length="91.99" shape="-695.99,795.20 -604.00,795.20"/>
        <lane id="closed_1" index="1" speed="13.89" length="91.99" shape="-695.99,798.40 -604.00,798.40"/>
    </edge>
    <edge id="destination" from="J4" to="J5" priority="-1" shape="-600.00,800.00 -400.00,800.00 300.00,800.00 -500.00,800.00">
        <lane id="destination_0" index="0" speed="13.89" length="92.80" shape="-592.80,795.20 -500.00,795.20"/>
        <lane id="destination_1" index="1" speed="13.89" length="92.80" shape="-592.80,798.40 -500.00,798.40"/>
    </edge>
    <edge id="origin" from="J0" to="J1" priority="-1" shape="-800.00,800.00 -699.90,800.10">
        <lane id="origin_0" index="0" speed="13.89" length="92.80" shape="-800.00,795.20 -707.20,795.29"/>
        <lane id="origin_1" index="1" speed="13.89" length="92.80" shape="-800.00,798.40 -707.20,798.49"/>
    </edge>

    <junction id="J0" type="dead_end" x="-800.00" y="800.00" incLanes="" intLanes="" shape="-800.00,800.00 -799.99,793.60"/>
    <junction id="J1" type="traffic_light" x="-700.00" y="800.00" incLanes="origin_0 origin_1" intLanes=":J1_0_0 :J1_1_0 :J1_1_1" shape="-695.99,800.00 -695.99,793.60 -698.22,793.16 -698.99,792.60 -699.55,791.82 -699.88,790.82 -699.99,789.60 -703.19,789.60 -703.64,791.87 -704.19,792.67 -704.97,793.24 -705.97,793.58 -707.19,793.69 -707.20,800.09" rightOfWay="edgePriority">
        <request index="0" response="000" foes="000" cont="0"/>
        <request index="1" response="000" foes="000" cont="0"/>
        <request index="2" response="000" foes="000" cont="0"/>
    </junction>
    <junction id="J2" type="priority" x="-700.00" y="700.00" incLanes="E1_0" intLanes=":J2_0_0" shape="-703.10,700.10 -699.90,700.10 -699.90,696.80 -701.67,697.16 -702.30,697.62 -702.74,698.26 -703.01,699.09">
        <request index="0" response="0" foes="0" cont="0"/>
    </junction>
    <junction id="J3" type="priority" x="-600.00" y="700.00" incLanes="E2_0" intLanes=":J3_0_0" shape="-600.00,700.10 -596.80,700.10 -597.16,698.32 -597.60,697.70 -598.22,697.26 -599.02,696.99 -600.00,696.90">
        <request index="0" response="0" foes="0" cont="0"/>
    </junction>
    <junction id="J4" type="priority" x="-600.00" y="800.00" incLanes="E3_0 closed_0 closed_1" intLanes=":J4_0_0 :J4_1_0 :J4_1_1" shape="-592.80,800.00 -592.80,793.60 -595.02,793.16 -595.80,792.60 -596.36,791.82 -596.69,790.82 -596.80,789.60 -600.00,789.60 -600.44,791.82 -601.00,792.60 -601.78,793.16 -602.78,793.49 -604.00,793.60 -604.00,800.00">
        <request index="0" response="110" foes="110" cont="0"/>
        <request index="1" response="000" foes="001" cont="0"/>
        <request index="2" response="000" foes="001" cont="0"/>
    </junction>
    <junction id="J5" type="dead_end" x="-500.00" y="800.00" incLanes="destination_0 destination_1" intLanes="" shape="-500.00,793.60 -500.00,800.00"/>

    <connection from="E1" to="E2" fromLane="0" toLane="0" via=":J2_0_0" dir="l" state="M"/>
    <connection from="E2" to="E3" fromLane="0" toLane="0" via=":J3_0_0" dir="l" state="M"/>
    <connection from="E3" to="destination" fromLane="0" toLane="0" via=":J4_0_0" dir="r" state="m"/>
    <connection from="closed" to="destination" fromLane="0" toLane="0" via=":J4_1_0" dir="s" state="M"/>
    <connection from="closed" to="destination" fromLane="1" toLane="1" via=":J4_1_1" dir="s" state="M"/>
    <connection from="origin" to="E1" fromLane="0" toLane="0" uncontrolled="1" via=":J1_0_0" dir="r" state="M"/>
    <connection from="origin" to="closed" fromLane="0" toLane="0" uncontrolled="1" via=":J1_1_0" dir="s" state="M"/>
    <connection from="origin" to="closed" fromLane="1" toLane="1" uncontrolled="1" via=":J1_1_1" dir="s" state="M"/>

    <connection from=":J1_0" to="E1" fromLane="0" toLane="0" dir="r" state="M"/>
    <connection from=":J1_1" to="closed" fromLane="0" toLane="0" dir="s" state="M"/>
    <connection from=":J1_1" to="closed" fromLane="1" toLane="1" dir="s" state="M"/>
    <connection from=":J2_0" to="E2" fromLane="0" toLane="0" dir="l" state="M"/>
    <connection from=":J3_0" to="E3" fromLane="0" toLane="0" dir="l" state="M"/>
    <connection from=":J4_0" to="destination" fromLane="0" toLane="0" dir="r" state="M"/>
    <connection from=":J4_1" to="destination" fromLane="0" toLane="0" dir="s" state="M"/>
    <connection from=":J4_1" to="destination" fromLane="1" toLane="1" dir="s" state="M"/>

</net>