<routes>
        <vType id="passenger" accel="0.8" decel="4.5" sigma="0.5" length="5" minGap="2" maxSpeed="16.67" guiShape="passenger"/>
        <vType id="emergency" accel="0.8" decel="4.5" sigma="0.5" length="7" minGap="3" maxSpeed="25" guiShape="emergency"/>

        <route id="right" edges="3c c4" />
        <route id="left" edges="4c c3" />
        <route id="down" edges="1c c2" />
        <route id="up" edges="2c c1" />
        <route id="leftTurn1" edges="4c c2" />
        <route id="leftTurn2" edges="3c c1" />
        <route id="rightTurn1" edges="2c c4" />
        <route id="rightTurn2" edges="4c c1" />
        <route id="rightTurn3" edges="1c c3" />
        <route id="rightTurn4" edges="3c c2" />
        <route id="uTurn1" edges="1c c1" />
        <route id="uTurn2" edges="2c c2" />
              
    <vehicle id="uTurn2_0" type="passenger" route="uTurn2" depart="1" departLane="1" />
    <vehicle id="right_1" type="passenger" route="right" depart="2" departLane="0" />
    <vehicle id="leftTurn1_2" type="passenger" route="leftTurn1" depart="3" departLane="2" />
    <vehicle id="right_3" type="passenger" route="up" depart="4" departLane="1" />
    <vehicle id="uTurn2_4" type="passenger" route="uTurn2" depart="6" departLane="2" />
    <vehicle id="rightTurn4_5" type="passenger" route="rightTurn4" depart="7" departLane="3" />
    <vehicle id="emergency_6" type="emergency" route="left" depart="8" departLane="2" />
    <vehicle id="rightTurn1_7" type="passenger" route="rightTurn1" depart="10" departLane="4" />
    <vehicle id="leftTurn2_8" type="passenger" route="leftTurn2" depart="11" departLane="1" />
    <vehicle id="rightTurn4_9" type="passenger" route="rightTurn4" depart="12" departLane="3" />
    <vehicle id="right_10" type="passenger" route="down" depart="13" departLane="3" />
    <vehicle id="rightTurn4_11" type="passenger" route="rightTurn4" depart="14" departLane="4" />
    <vehicle id="leftTurn2_12" type="passenger" route="leftTurn2" depart="15" departLane="2" />
    <vehicle id="rightTurn1_13" type="passenger" route="rightTurn1" depart="15" departLane="2" />
    <vehicle id="rightTurn3_14" type="passenger" route="rightTurn3" depart="15" departLane="3" />
    <vehicle id="emergency_15" type="emergency" route="left" depart="16" departLane="0" />
    <vehicle id="rightTurn4_16" type="passenger" route="rightTurn4" depart="16" departLane="1" />
    <vehicle id="rightTurn3_17" type="passenger" route="rightTurn3" depart="17" departLane="2" />
    <vehicle id="leftTurn2_18" type="passenger" route="leftTurn2" depart="18" departLane="4" />
    <vehicle id="uTurn1_19" type="passenger" route="uTurn1" depart="21" departLane="0" />
    <vehicle id="right_20" type="passenger" route="up" depart="21" departLane="4" />
    <vehicle id="rightTurn2_21" type="passenger" route="rightTurn2" depart="21" departLane="4" />
    <vehicle id="rightTurn4_22" type="passenger" route="rightTurn4" depart="21" departLane="1" />
    <vehicle id="leftTurn1_23" type="passenger" route="leftTurn1" depart="22" departLane="1" />
    <vehicle id="uTurn1_24" type="passenger" route="uTurn1" depart="23" departLane="0" />
    <vehicle id="leftTurn2_25" type="passenger" route="leftTurn2" depart="23" departLane="4" />
    <vehicle id="rightTurn4_26" type="passenger" route="rightTurn4" depart="23" departLane="1" />
    <vehicle id="right_27" type="passenger" route="up" depart="24" departLane="3" />
    <vehicle id="rightTurn1_28" type="passenger" route="rightTurn1" depart="24" departLane="1" />
    <vehicle id="rightTurn4_29" type="passenger" route="rightTurn4" depart="24" departLane="3" />
    <vehicle id="uTurn2_30" type="passenger" route="uTurn2" depart="25" departLane="3" />
    <vehicle id="leftTurn1_31" type="passenger" route="leftTurn1" depart="26" departLane="0" />
    <vehicle id="uTurn2_32" type="passenger" route="uTurn2" depart="27" departLane="3" />
    <vehicle id="right_33" type="passenger" route="up" depart="27" departLane="1" />
    <vehicle id="leftTurn1_34" type="passenger" route="leftTurn1" depart="27" departLane="3" />
    <vehicle id="right_35" type="passenger" route="up" depart="28" departLane="0" />
    <vehicle id="leftTurn2_36" type="passenger" route="leftTurn2" depart="28" departLane="4" />
    <vehicle id="right_37" type="passenger" route="right" depart="29" departLane="2" />
    <vehicle id="uTurn1_38" type="passenger" route="uTurn1" depart="31" departLane="4" />
    <vehicle id="rightTurn1_39" type="passenger" route="rightTurn1" depart="31" departLane="4" />
    <vehicle id="right_40" type="passenger" route="down" depart="34" departLane="0" />
    <vehicle id="uTurn1_41" type="passenger" route="uTurn1" depart="36" departLane="1" />
    <vehicle id="rightTurn1_42" type="passenger" route="rightTurn1" depart="36" departLane="1" />
    <vehicle id="left_43" type="passenger" route="left" depart="37" departLane="3" />
    <vehicle id="right_44" type="passenger" route="down" depart="37" departLane="2" />
    <vehicle id="rightTurn1_45" type="passenger" route="rightTurn1" depart="37" departLane="2" />
    <vehicle id="right_46" type="passenger" route="right" depart="38" departLane="3" />
    <vehicle id="rightTurn3_47" type="passenger" route="rightTurn3" depart="41" departLane="3" />
    <vehicle id="right_48" type="passenger" route="right" depart="42" departLane="3" />
    <vehicle id="right_49" type="passenger" route="up" depart="42" departLane="1" />
    <vehicle id="uTurn2_50" type="passenger" route="uTurn2" depart="43" departLane="1" />
    <vehicle id="rightTurn4_51" type="passenger" route="rightTurn4" depart="44" departLane="4" />
    <vehicle id="rightTurn4_52" type="passenger" route="rightTurn4" depart="45" departLane="0" />
    <vehicle id="right_53" type="passenger" route="down" depart="50" departLane="0" />
    <vehicle id="leftTurn1_54" type="passenger" route="leftTurn1" depart="50" departLane="1" />
    <vehicle id="uTurn1_55" type="passenger" route="uTurn1" depart="52" departLane="4" />
    <vehicle id="uTurn2_56" type="passenger" route="uTurn2" depart="53" departLane="0" />
    <vehicle id="right_57" type="passenger" route="right" depart="53" departLane="4" />
    <vehicle id="rightTurn4_58" type="passenger" route="rightTurn4" depart="53" departLane="2" />
    <vehicle id="rightTurn4_59" type="passenger" route="rightTurn4" depart="55" departLane="4" />
    <vehicle id="left_60" type="passenger" route="left" depart="56" departLane="2" />
    <vehicle id="rightTurn4_61" type="passenger" route="rightTurn4" depart="56" departLane="0" />
    <vehicle id="leftTurn2_62" type="passenger" route="leftTurn2" depart="57" departLane="4" />
    <vehicle id="right_63" type="passenger" route="up" depart="58" departLane="2" />
    <vehicle id="right_64" type="passenger" route="down" depart="59" departLane="2" />
    <vehicle id="rightTurn3_65" type="passenger" route="rightTurn3" depart="59" departLane="4" />
    <vehicle id="right_66" type="passenger" route="down" depart="62" departLane="3" />
    <vehicle id="rightTurn2_67" type="passenger" route="rightTurn2" depart="62" departLane="4" />
    <vehicle id="rightTurn4_68" type="passenger" route="rightTurn4" depart="63" departLane="1" />
    <vehicle id="uTurn1_69" type="passenger" route="uTurn1" depart="64" departLane="1" />
    <vehicle id="leftTurn2_70" type="passenger" route="leftTurn2" depart="64" departLane="1" />
    <vehicle id="leftTurn1_71" type="passenger" route="leftTurn1" depart="65" departLane="1" />
    <vehicle id="emergency_72" type="emergency" route="left" depart="66" departLane="0" />
    <vehicle id="right_73" type="passenger" route="up" depart="66" departLane="4" />
    <vehicle id="right_74" type="passenger" route="right" depart="67" departLane="2" />
    <vehicle id="uTurn2_75" type="passenger" route="uTurn2" depart="68" departLane="4" />
    <vehicle id="right_76" type="passenger" route="right" depart="68" departLane="1" />
    <vehicle id="rightTurn2_77" type="passenger" route="rightTurn2" depart="68" departLane="4" />
    <vehicle id="emergency_78" type="emergency" route="left" depart="69" departLane="2" />
    <vehicle id="right_79" type="passenger" route="down" depart="69" departLane="2" />
    <vehicle id="rightTurn4_80" type="passenger" route="rightTurn4" depart="69" departLane="4" />
    <vehicle id="right_81" type="passenger" route="down" depart="70" departLane="2" />
    <vehicle id="rightTurn2_82" type="passenger" route="rightTurn2" depart="72" departLane="0" />
    <vehicle id="uTurn2_83" type="passenger" route="uTurn2" depart="73" departLane="0" />
    <vehicle id="rightTurn1_84" type="passenger" route="rightTurn1" depart="73" departLane="0" />
    <vehicle id="rightTurn2_85" type="passenger" route="rightTurn2" depart="73" departLane="1" />
    <vehicle id="left_86" type="passenger" route="left" depart="74" departLane="0" />
    <vehicle id="leftTurn2_87" type="passenger" route="leftTurn2" depart="74" departLane="3" />
    <vehicle id="leftTurn2_88" type="passenger" route="leftTurn2" depart="75" departLane="1" />
    <vehicle id="rightTurn1_89" type="passenger" route="rightTurn1" depart="77" departLane="3" />
    <vehicle id="rightTurn4_90" type="passenger" route="rightTurn4" depart="77" departLane="0" />
    <vehicle id="right_91" type="passenger" route="right" depart="78" departLane="1" />
    <vehicle id="rightTurn1_92" type="passenger" route="rightTurn1" depart="78" departLane="4" />
    <vehicle id="uTurn2_93" type="passenger" route="uTurn2" depart="79" departLane="1" />
    <vehicle id="rightTurn4_94" type="passenger" route="rightTurn4" depart="80" departLane="3" />
    <vehicle id="right_95" type="passenger" route="right" depart="81" departLane="1" />
    <vehicle id="emergency_96" type="emergency" route="left" depart="81" departLane="4" />
    <vehicle id="uTurn1_97" type="passenger" route="uTurn1" depart="83" departLane="1" />
    <vehicle id="leftTurn1_98" type="passenger" route="leftTurn1" depart="83" departLane="0" />
    <vehicle id="rightTurn2_99" type="passenger" route="rightTurn2" depart="83" departLane="4" />
    <vehicle id="leftTurn2_100" type="passenger" route="leftTurn2" depart="85" departLane="0" />
    <vehicle id="uTurn2_101" type="passenger" route="uTurn2" depart="86" departLane="1" />
    <vehicle id="right_102" type="passenger" route="up" depart="86" departLane="2" />
    <vehicle id="rightTurn1_103" type="passenger" route="rightTurn1" depart="86" departLane="2" />
    <vehicle id="rightTurn4_104" type="passenger" route="rightTurn4" depart="86" departLane="2" />
    <vehicle id="rightTurn3_105" type="passenger" route="rightTurn3" depart="87" departLane="1" />
    <vehicle id="leftTurn2_106" type="passenger" route="leftTurn2" depart="88" departLane="4" />
    <vehicle id="right_107" type="passenger" route="up" depart="89" departLane="2" />
    <vehicle id="rightTurn4_108" type="passenger" route="rightTurn4" depart="89" departLane="3" />
    <vehicle id="right_109" type="passenger" route="up" depart="91" departLane="3" />
    <vehicle id="rightTurn4_110" type="passenger" route="rightTurn4" depart="91" departLane="4" />
    <vehicle id="right_111" type="passenger" route="right" depart="93" departLane="2" />
    <vehicle id="leftTurn1_112" type="passenger" route="leftTurn1" depart="94" departLane="4" />
    <vehicle id="leftTurn2_113" type="passenger" route="leftTurn2" depart="94" departLane="4" />
    <vehicle id="right_114" type="passenger" route="down" depart="95" departLane="2" />
    <vehicle id="leftTurn1_115" type="passenger" route="leftTurn1" depart="96" departLane="1" />
    <vehicle id="rightTurn3_116" type="passenger" route="rightTurn3" depart="96" departLane="1" />
    <vehicle id="right_117" type="passenger" route="down" depart="97" departLane="2" />
    <vehicle id="leftTurn1_118" type="passenger" route="leftTurn1" depart="97" departLane="1" />
    <vehicle id="leftTurn2_119" type="passenger" route="leftTurn2" depart="98" departLane="0" />
    <vehicle id="uTurn1_120" type="passenger" route="uTurn1" depart="100" departLane="4" />
    <vehicle id="right_121" type="passenger" route="right" depart="101" departLane="1" />
    <vehicle id="right_122" type="passenger" route="up" depart="101" departLane="3" />
    <vehicle id="rightTurn1_123" type="passenger" route="rightTurn1" depart="101" departLane="4" />
    <vehicle id="rightTurn4_124" type="passenger" route="rightTurn4" depart="101" departLane="4" />
    <vehicle id="rightTurn2_125" type="passenger" route="rightTurn2" depart="104" departLane="1" />
    <vehicle id="right_126" type="passenger" route="right" depart="105" departLane="3" />
    <vehicle id="right_127" type="passenger" route="up" depart="106" departLane="0" />
    <vehicle id="rightTurn2_128" type="passenger" route="rightTurn2" depart="106" departLane="3" />
    <vehicle id="uTurn2_129" type="passenger" route="uTurn2" depart="107" departLane="3" />
    <vehicle id="rightTurn2_130" type="passenger" route="rightTurn2" depart="107" departLane="3" />
    <vehicle id="left_131" type="passenger" route="left" depart="108" departLane="1" />
    <vehicle id="uTurn1_132" type="passenger" route="uTurn1" depart="109" departLane="2" />
    <vehicle id="uTurn2_133" type="passenger" route="uTurn2" depart="109" departLane="3" />
    <vehicle id="uTurn2_134" type="passenger" route="uTurn2" depart="111" departLane="4" />
    <vehicle id="rightTurn2_135" type="passenger" route="rightTurn2" depart="111" departLane="0" />
    <vehicle id="right_136" type="passenger" route="down" depart="112" departLane="4" />
    <vehicle id="right_137" type="passenger" route="up" depart="112" departLane="3" />
    <vehicle id="leftTurn2_138" type="passenger" route="leftTurn2" depart="112" departLane="0" />
    <vehicle id="rightTurn1_139" type="passenger" route="rightTurn1" depart="112" departLane="2" />
    <vehicle id="right_140" type="passenger" route="down" depart="114" departLane="4" />
    <vehicle id="rightTurn3_141" type="passenger" route="rightTurn3" depart="115" departLane="3" />
    <vehicle id="uTurn1_142" type="passenger" route="uTurn1" depart="118" departLane="1" />
    <vehicle id="rightTurn2_143" type="passenger" route="rightTurn2" depart="119" departLane="3" />
    <vehicle id="right_144" type="passenger" route="down" depart="121" departLane="4" />
    <vehicle id="uTurn2_145" type="passenger" route="uTurn2" depart="122" departLane="3" />
    <vehicle id="emergency_146" type="emergency" route="left" depart="123" departLane="3" />
    <vehicle id="rightTurn4_147" type="passenger" route="rightTurn4" depart="124" departLane="1" />
    <vehicle id="uTurn2_148" type="passenger" route="uTurn2" depart="125" departLane="4" />
    <vehicle id="left_149" type="passenger" route="left" depart="125" departLane="4" />
    <vehicle id="rightTurn3_150" type="passenger" route="rightTurn3" depart="125" departLane="3" />
    <vehicle id="left_151" type="passenger" route="left" depart="126" departLane="0" />
    <vehicle id="rightTurn2_152" type="passenger" route="rightTurn2" depart="126" departLane="2" />
    <vehicle id="uTurn1_153" type="passenger" route="uTurn1" depart="130" departLane="3" />
    <vehicle id="rightTurn1_154" type="passenger" route="rightTurn1" depart="132" departLane="2" />
    <vehicle id="rightTurn4_155" type="passenger" route="rightTurn4" depart="134" departLane="1" />
    <vehicle id="uTurn1_156" type="passenger" route="uTurn1" depart="135" departLane="1" />
    <vehicle id="uTurn1_157" type="passenger" route="uTurn1" depart="136" departLane="4" />
    <vehicle id="rightTurn3_158" type="passenger" route="rightTurn3" depart="137" departLane="2" />
    <vehicle id="right_159" type="passenger" route="down" depart="138" departLane="2" />
    <vehicle id="right_160" type="passenger" route="up" depart="138" departLane="0" />
    <vehicle id="uTurn2_161" type="passenger" route="uTurn2" depart="139" departLane="3" />
    <vehicle id="rightTurn4_162" type="passenger" route="rightTurn4" depart="139" departLane="4" />
    <vehicle id="left_163" type="passenger" route="left" depart="141" departLane="1" />
    <vehicle id="leftTurn1_164" type="passenger" route="leftTurn1" depart="141" departLane="1" />
    <vehicle id="leftTurn2_165" type="passenger" route="leftTurn2" depart="143" departLane="4" />
    <vehicle id="rightTurn2_166" type="passenger" route="rightTurn2" depart="144" departLane="4" />
    <vehicle id="rightTurn4_167" type="passenger" route="rightTurn4" depart="144" departLane="4" />
    <vehicle id="rightTurn1_168" type="passenger" route="rightTurn1" depart="145" departLane="0" />
    <vehicle id="uTurn1_169" type="passenger" route="uTurn1" depart="146" departLane="3" />
    <vehicle id="right_170" type="passenger" route="up" depart="146" departLane="3" />
    <vehicle id="rightTurn3_171" type="passenger" route="rightTurn3" depart="146" departLane="0" />
    <vehicle id="leftTurn1_172" type="passenger" route="leftTurn1" depart="147" departLane="0" />
    <vehicle id="right_173" type="passenger" route="right" depart="149" departLane="3" />
    <vehicle id="rightTurn3_174" type="passenger" route="rightTurn3" depart="149" departLane="4" />
    <vehicle id="rightTurn1_175" type="passenger" route="rightTurn1" depart="150" departLane="4" />
    <vehicle id="right_176" type="passenger" route="right" depart="151" departLane="3" />
    <vehicle id="leftTurn2_177" type="passenger" route="leftTurn2" depart="151" departLane="3" />
    <vehicle id="uTurn1_178" type="passenger" route="uTurn1" depart="153" departLane="2" />
    <vehicle id="rightTurn1_179" type="passenger" route="rightTurn1" depart="153" departLane="4" />
    <vehicle id="uTurn2_180" type="passenger" route="uTurn2" depart="155" departLane="1" />
    <vehicle id="right_181" type="passenger" route="down" depart="156" departLane="3" />
    <vehicle id="leftTurn1_182" type="passenger" route="leftTurn1" depart="158" departLane="0" />
    <vehicle id="right_183" type="passenger" route="right" depart="159" departLane="1" />
    <vehicle id="rightTurn1_184" type="passenger" route="rightTurn1" depart="160" departLane="0" />
    <vehicle id="leftTurn2_185" type="passenger" route="leftTurn2" depart="161" departLane="3" />
    <vehicle id="right_186" type="passenger" route="down" depart="163" departLane="4" />
    <vehicle id="rightTurn1_187" type="passenger" route="rightTurn1" depart="163" departLane="1" />
    <vehicle id="right_188" type="passenger" route="right" depart="164" departLane="0" />
    <vehicle id="right_189" type="passenger" route="down" depart="164" departLane="3" />
    <vehicle id="leftTurn1_190" type="passenger" route="leftTurn1" depart="164" departLane="4" />
    <vehicle id="uTurn2_191" type="passenger" route="uTurn2" depart="166" departLane="4" />
    <vehicle id="uTurn2_192" type="passenger" route="uTurn2" depart="167" departLane="1" />
    <vehicle id="rightTurn1_193" type="passenger" route="rightTurn1" depart="167" departLane="4" />
    <vehicle id="uTurn2_194" type="passenger" route="uTurn2" depart="168" departLane="0" />
    <vehicle id="right_195" type="passenger" route="up" depart="168" departLane="1" />
    <vehicle id="uTurn2_196" type="passenger" route="uTurn2" depart="170" departLane="0" />
    <vehicle id="right_197" type="passenger" route="down" depart="170" departLane="0" />
    <vehicle id="right_198" type="passenger" route="right" depart="171" departLane="3" />
    <vehicle id="right_199" type="passenger" route="down" depart="171" departLane="0" />
    <vehicle id="rightTurn4_200" type="passenger" route="rightTurn4" depart="171" departLane="0" />
    <vehicle id="rightTurn1_201" type="passenger" route="rightTurn1" depart="172" departLane="1" />
    <vehicle id="emergency_202" type="emergency" route="left" depart="173" departLane="1" />
    <vehicle id="rightTurn1_203" type="passenger" route="rightTurn1" depart="173" departLane="3" />
    <vehicle id="rightTurn4_204" type="passenger" route="rightTurn4" depart="173" departLane="1" />
    <vehicle id="leftTurn2_205" type="passenger" route="leftTurn2" depart="176" departLane="0" />
    <vehicle id="right_206" type="passenger" route="up" depart="178" departLane="3" />
    <vehicle id="uTurn2_207" type="passenger" route="uTurn2" depart="179" departLane="3" />
    <vehicle id="left_208" type="passenger" route="left" depart="179" departLane="0" />
    <vehicle id="uTurn2_209" type="passenger" route="uTurn2" depart="180" departLane="3" />
    <vehicle id="rightTurn3_210" type="passenger" route="rightTurn3" depart="180" departLane="4" />
    <vehicle id="uTurn2_211" type="passenger" route="uTurn2" depart="181" departLane="3" />
    <vehicle id="right_212" type="passenger" route="right" depart="181" departLane="1" />
    <vehicle id="leftTurn2_213" type="passenger" route="leftTurn2" depart="181" departLane="1" />
    <vehicle id="rightTurn1_214" type="passenger" route="rightTurn1" depart="181" departLane="1" />
    <vehicle id="rightTurn2_215" type="passenger" route="rightTurn2" depart="181" departLane="2" />
    <vehicle id="right_216" type="passenger" route="up" depart="182" departLane="4" />
    <vehicle id="right_217" type="passenger" route="right" depart="183" departLane="2" />
    <vehicle id="rightTurn1_218" type="passenger" route="rightTurn1" depart="183" departLane="4" />
    <vehicle id="rightTurn4_219" type="passenger" route="rightTurn4" depart="184" departLane="3" />
    <vehicle id="right_220" type="passenger" route="up" depart="185" departLane="4" />
    <vehicle id="rightTurn4_221" type="passenger" route="rightTurn4" depart="185" departLane="2" />
    <vehicle id="rightTurn3_222" type="passenger" route="rightTurn3" depart="187" departLane="3" />
    <vehicle id="rightTurn2_223" type="passenger" route="rightTurn2" depart="191" departLane="2" />
    <vehicle id="leftTurn1_224" type="passenger" route="leftTurn1" depart="192" departLane="2" />
    <vehicle id="rightTurn2_225" type="passenger" route="rightTurn2" depart="192" departLane="2" />
    <vehicle id="rightTurn3_226" type="passenger" route="rightTurn3" depart="192" departLane="1" />
    <vehicle id="leftTurn2_227" type="passenger" route="leftTurn2" depart="193" departLane="4" />
    <vehicle id="rightTurn2_228" type="passenger" route="rightTurn2" depart="195" departLane="1" />
    <vehicle id="uTurn1_229" type="passenger" route="uTurn1" depart="196" departLane="0" />
    <vehicle id="left_230" type="passenger" route="left" depart="196" departLane="1" />
    <vehicle id="rightTurn1_231" type="passenger" route="rightTurn1" depart="196" departLane="4" />
    <vehicle id="rightTurn3_232" type="passenger" route="rightTurn3" depart="196" departLane="0" />
    <vehicle id="leftTurn1_233" type="passenger" route="leftTurn1" depart="197" departLane="2" />
    <vehicle id="leftTurn1_234" type="passenger" route="leftTurn1" depart="198" departLane="2" />
    <vehicle id="rightTurn2_235" type="passenger" route="rightTurn2" depart="198" departLane="3" />
    <vehicle id="rightTurn2_236" type="passenger" route="rightTurn2" depart="199" departLane="3" />
    <vehicle id="uTurn1_237" type="passenger" route="uTurn1" depart="201" departLane="0" />
    <vehicle id="uTurn1_238" type="passenger" route="uTurn1" depart="202" departLane="0" />
    <vehicle id="right_239" type="passenger" route="up" depart="202" departLane="2" />
    <vehicle id="uTurn1_240" type="passenger" route="uTurn1" depart="203" departLane="3" />
    <vehicle id="left_241" type="passenger" route="left" depart="203" departLane="1" />
    <vehicle id="leftTurn1_242" type="passenger" route="leftTurn1" depart="208" departLane="2" />
    <vehicle id="rightTurn1_243" type="passenger" route="rightTurn1" depart="209" departLane="3" />
    <vehicle id="uTurn2_244" type="passenger" route="uTurn2" depart="211" departLane="1" />
    <vehicle id="left_245" type="passenger" route="left" depart="211" departLane="4" />
    <vehicle id="rightTurn1_246" type="passenger" route="rightTurn1" depart="211" departLane="2" />
    <vehicle id="rightTurn4_247" type="passenger" route="rightTurn4" depart="211" departLane="1" />
    <vehicle id="right_248" type="passenger" route="down" depart="215" departLane="2" />
    <vehicle id="rightTurn1_249" type="passenger" route="rightTurn1" depart="216" departLane="2" />
    <vehicle id="right_250" type="passenger" route="right" depart="217" departLane="3" />
    <vehicle id="emergency_251" type="emergency" route="left" depart="217" departLane="2" />
    <vehicle id="leftTurn1_252" type="passenger" route="leftTurn1" depart="217" departLane="2" />
    <vehicle id="right_253" type="passenger" route="down" depart="219" departLane="1" />
    <vehicle id="rightTurn4_254" type="passenger" route="rightTurn4" depart="219" departLane="4" />
    <vehicle id="right_255" type="passenger" route="down" depart="220" departLane="1" />
    <vehicle id="right_256" type="passenger" route="right" depart="222" departLane="1" />
    <vehicle id="right_257" type="passenger" route="down" depart="223" departLane="1" />
    <vehicle id="rightTurn2_258" type="passenger" route="rightTurn2" depart="224" departLane="2" />
    <vehicle id="uTurn1_259" type="passenger" route="uTurn1" depart="226" departLane="2" />
    <vehicle id="leftTurn1_260" type="passenger" route="leftTurn1" depart="226" departLane="4" />
    <vehicle id="emergency_261" type="emergency" route="left" depart="227" departLane="3" />
    <vehicle id="leftTurn1_262" type="passenger" route="leftTurn1" depart="227" departLane="3" />
    <vehicle id="rightTurn1_263" type="passenger" route="rightTurn1" depart="227" departLane="4" />
    <vehicle id="right_264" type="passenger" route="down" depart="229" departLane="2" />
    <vehicle id="rightTurn4_265" type="passenger" route="rightTurn4" depart="229" departLane="3" />
    <vehicle id="right_266" type="passenger" route="right" depart="232" departLane="0" />
    <vehicle id="right_267" type="passenger" route="down" depart="232" departLane="1" />
    <vehicle id="rightTurn1_268" type="passenger" route="rightTurn1" depart="232" departLane="4" />
    <vehicle id="uTurn1_269" type="passenger" route="uTurn1" depart="233" departLane="0" />
    <vehicle id="right_270" type="passenger" route="right" depart="233" departLane="4" />
    <vehicle id="rightTurn2_271" type="passenger" route="rightTurn2" depart="234" departLane="4" />
    <vehicle id="rightTurn3_272" type="passenger" route="rightTurn3" depart="234" departLane="3" />
    <vehicle id="rightTurn4_273" type="passenger" route="rightTurn4" depart="234" departLane="1" />
    <vehicle id="right_274" type="passenger" route="right" depart="235" departLane="0" />
    <vehicle id="rightTurn3_275" type="passenger" route="rightTurn3" depart="235" departLane="0" />
    <vehicle id="rightTurn1_276" type="passenger" route="rightTurn1" depart="237" departLane="4" />
    <vehicle id="left_277" type="passenger" route="left" depart="238" departLane="3" />
    <vehicle id="right_278" type="passenger" route="down" depart="238" departLane="1" />
    <vehicle id="uTurn2_279" type="passenger" route="uTurn2" depart="239" departLane="0" />
    <vehicle id="leftTurn1_280" type="passenger" route="leftTurn1" depart="239" departLane="2" />
    <vehicle id="rightTurn2_281" type="passenger" route="rightTurn2" depart="239" departLane="4" />
    <vehicle id="left_282" type="passenger" route="left" depart="242" departLane="0" />
    <vehicle id="rightTurn2_283" type="passenger" route="rightTurn2" depart="242" departLane="2" />
    <vehicle id="right_284" type="passenger" route="up" depart="246" departLane="2" />
    <vehicle id="leftTurn1_285" type="passenger" route="leftTurn1" depart="246" departLane="3" />
    <vehicle id="rightTurn3_286" type="passenger" route="rightTurn3" depart="246" departLane="2" />
    <vehicle id="uTurn1_287" type="passenger" route="uTurn1" depart="247" departLane="0" />
    <vehicle id="rightTurn1_288" type="passenger" route="rightTurn1" depart="247" departLane="1" />
    <vehicle id="left_289" type="passenger" route="left" depart="249" departLane="4" />
    <vehicle id="right_290" type="passenger" route="up" depart="249" departLane="2" />
    <vehicle id="leftTurn2_291" type="passenger" route="leftTurn2" depart="250" departLane="4" />
    <vehicle id="uTurn1_292" type="passenger" route="uTurn1" depart="251" departLane="2" />
    <vehicle id="uTurn2_293" type="passenger" route="uTurn2" depart="252" departLane="3" />
    <vehicle id="uTurn2_294" type="passenger" route="uTurn2" depart="253" departLane="3" />
    <vehicle id="emergency_295" type="emergency" route="left" depart="256" departLane="4" />
    <vehicle id="rightTurn2_296" type="passenger" route="rightTurn2" depart="257" departLane="1" />
    <vehicle id="rightTurn2_297" type="passenger" route="rightTurn2" depart="258" departLane="3" />
    <vehicle id="rightTurn3_298" type="passenger" route="rightTurn3" depart="258" departLane="2" />
    <vehicle id="leftTurn1_299" type="passenger" route="leftTurn1" depart="259" departLane="3" />
    <vehicle id="uTurn2_300" type="passenger" route="uTurn2" depart="261" departLane="1" />
    <vehicle id="right_301" type="passenger" route="right" depart="261" departLane="2" />
    <vehicle id="right_302" type="passenger" route="up" depart="261" departLane="3" />
    <vehicle id="leftTurn2_303" type="passenger" route="leftTurn2" depart="261" departLane="0" />
    <vehicle id="rightTurn2_304" type="passenger" route="rightTurn2" depart="261" departLane="4" />
    <vehicle id="rightTurn2_305" type="passenger" route="rightTurn2" depart="262" departLane="1" />
    <vehicle id="right_306" type="passenger" route="right" depart="263" departLane="2" />
    <vehicle id="leftTurn2_307" type="passenger" route="leftTurn2" depart="263" departLane="2" />
    <vehicle id="rightTurn3_308" type="passenger" route="rightTurn3" depart="263" departLane="4" />
    <vehicle id="uTurn2_309" type="passenger" route="uTurn2" depart="264" departLane="0" />