<routes>
        <vType id="passenger" accel="5" decel="10" sigma="0.5" length="5" minGap="2" departSpeed="16.67" maxSpeed="16.67" guiShape="passenger" color="grey"/>
        <vType id="emergency" vClass="emergency" accel="5" decel="10" sigma="0.5" length="7" minGap="2" departSpeed="16.67" maxSpeed="35" color="red"/>
        <vType id="bus" accel="5" decel="10" sigma="0.5" length="12" minGap="2" departSpeed="12" maxSpeed="12" guiShape="bus" color="0,0,255"/>
        <vType id="truck" accel="5" decel="10" sigma="0.5" length="10" minGap="2" departSpeed="10" maxSpeed="10" guiShape="truck" color="0,255,0"/>
        
        <route id="right" edges="3c c4" />
        <route id="left" edges="4c c3" />
        <route id="down" edges="1c c2" />
        <route id="up" edges="2c c1" />
        <route id="leftTurn1" edges="4c c2" />
        <route id="leftTurn2" edges="3c c1" />
        <route id="rightTurn1" edges="2c c4" />
        <route id="rightTurn2" edges="4c c1" />
        <route id="rightTurn3" edges="1c c3" />
        <route id="rightTurn4" edges="3c c2" />
        <route id="uTurn1" edges="1c c1" />
        <route id="uTurn2" edges="2c c2" />
        
    <vehicle id="right_0" type="passenger" route="right" depart="0" departLane="3" />
    <vehicle id="right_1" type="passenger" route="right" depart="0" departLane="2" />
    <vehicle id="left_2" type="passenger" route="left" depart="0" departLane="0" />
    <vehicle id="left_3" type="passenger" route="left" depart="0" departLane="3" />
    <vehicle id="down_4" type="passenger" route="down" depart="0" departLane="0" />
    <vehicle id="left_5" type="passenger" route="left" depart="1" departLane="4" />
    <vehicle id="left_6" type="passenger" route="left" depart="1" departLane="3" />
    <vehicle id="up_7" type="passenger" route="up" depart="1" departLane="3" />
    <vehicle id="up_8" type="passenger" route="up" depart="1" departLane="3" />
    <vehicle id="leftTurn2_9" type="passenger" route="leftTurn2" depart="1" departLane="1" />
    <vehicle id="left_10" type="passenger" route="left" depart="2" departLane="1" />
    <vehicle id="left_11" type="passenger" route="left" depart="2" departLane="4" />
    <vehicle id="down_12" type="truck" route="down" depart="2" departLane="3" />
    <vehicle id="up_13" type="passenger" route="up" depart="2" departLane="0" />
    <vehicle id="leftTurn2_14" type="passenger" route="leftTurn2" depart="2" departLane="1" />
    <vehicle id="left_15" type="passenger" route="left" depart="3" departLane="3" />
    <vehicle id="left_16" type="passenger" route="left" depart="3" departLane="2" />
    <vehicle id="down_17" type="passenger" route="down" depart="3" departLane="3" />
    <vehicle id="right_18" type="passenger" route="right" depart="4" departLane="0" />
    <vehicle id="right_19" type="passenger" route="right" depart="4" departLane="0" />
    <vehicle id="left_20" type="passenger" route="left" depart="4" departLane="0" />
    <vehicle id="down_21" type="passenger" route="down" depart="4" departLane="3" />
    <vehicle id="up_22" type="passenger" route="up" depart="4" departLane="1" />
    <vehicle id="right_23" type="truck" route="right" depart="5" departLane="0" />
    <vehicle id="left_24" type="passenger" route="left" depart="5" departLane="0" />
    <vehicle id="down_25" type="passenger" route="down" depart="5" departLane="4" />
    <vehicle id="up_26" type="passenger" route="up" depart="5" departLane="1" />
    <vehicle id="up_27" type="passenger" route="up" depart="5" departLane="0" />
    <vehicle id="leftTurn2_28" type="passenger" route="leftTurn2" depart="5" departLane="0" />
    <vehicle id="right_29" type="passenger" route="right" depart="6" departLane="4" />
    <vehicle id="right_30" type="passenger" route="right" depart="6" departLane="1" />
    <vehicle id="left_31" type="passenger" route="left" depart="6" departLane="3" />
    <vehicle id="left_32" type="passenger" route="left" depart="6" departLane="0" />
    <vehicle id="down_33" type="passenger" route="down" depart="6" departLane="1" />
    <vehicle id="up_34" type="passenger" route="up" depart="6" departLane="4" />
    <vehicle id="up_35" type="passenger" route="up" depart="6" departLane="0" />
    <vehicle id="up_36" type="passenger" route="up" depart="6" departLane="4" />
    <vehicle id="right_37" type="passenger" route="right" depart="7" departLane="1" />
    <vehicle id="left_38" type="truck" route="left" depart="7" departLane="4" />
    <vehicle id="down_39" type="truck" route="down" depart="7" departLane="0" />
    <vehicle id="up_40" type="passenger" route="up" depart="7" departLane="3" />
    <vehicle id="up_41" type="passenger" route="up" depart="7" departLane="1" />
    <vehicle id="left_42" type="passenger" route="left" depart="8" departLane="4" />
    <vehicle id="left_43" type="passenger" route="left" depart="8" departLane="2" />
    <vehicle id="up_44" type="passenger" route="up" depart="8" departLane="4" />
    <vehicle id="up_45" type="passenger" route="up" depart="8" departLane="0" />
    <vehicle id="left_46" type="passenger" route="left" depart="9" departLane="0" />
    <vehicle id="up_47" type="passenger" route="up" depart="9" departLane="4" />
    <vehicle id="right_48" type="passenger" route="right" depart="10" departLane="1" />
    <vehicle id="right_49" type="passenger" route="right" depart="10" departLane="4" />
    <vehicle id="right_50" type="passenger" route="right" depart="10" departLane="3" />
    <vehicle id="left_51" type="bus" route="left" depart="10" departLane="2" />
    <vehicle id="left_52" type="passenger" route="left" depart="10" departLane="0" />
    <vehicle id="left_53" type="passenger" route="left" depart="10" departLane="3" />
    <vehicle id="left_54" type="passenger" route="left" depart="11" departLane="0" />
    <vehicle id="right_55" type="passenger" route="right" depart="12" departLane="2" />
    <vehicle id="right_56" type="passenger" route="right" depart="12" departLane="0" />
    <vehicle id="right_57" type="passenger" route="right" depart="12" departLane="4" />
    <vehicle id="right_58" type="passenger" route="right" depart="12" departLane="3" />
    <vehicle id="left_59" type="passenger" route="left" depart="12" departLane="1" />
    <vehicle id="up_60" type="passenger" route="up" depart="12" departLane="0" />
    <vehicle id="up_61" type="passenger" route="up" depart="12" departLane="1" />
    <vehicle id="up_62" type="passenger" route="up" depart="12" departLane="3" />
    <vehicle id="right_63" type="passenger" route="right" depart="13" departLane="4" />
    <vehicle id="right_64" type="passenger" route="right" depart="13" departLane="2" />
    <vehicle id="left_65" type="passenger" route="left" depart="13" departLane="2" />
    <vehicle id="up_66" type="passenger" route="up" depart="13" departLane="1" />
    <vehicle id="right_67" type="truck" route="right" depart="14" departLane="1" />
    <vehicle id="right_68" type="passenger" route="right" depart="14" departLane="4" />
    <vehicle id="right_69" type="passenger" route="right" depart="14" departLane="0" />
    <vehicle id="left_70" type="passenger" route="left" depart="14" departLane="1" />
    <vehicle id="left_71" type="passenger" route="left" depart="14" departLane="2" />
    <vehicle id="left_72" type="passenger" route="left" depart="14" departLane="2" />
    <vehicle id="down_73" type="passenger" route="down" depart="14" departLane="3" />
    <vehicle id="leftTurn2_74" type="passenger" route="leftTurn2" depart="15" departLane="1" />
    <vehicle id="right_75" type="passenger" route="right" depart="16" departLane="4" />
    <vehicle id="left_76" type="passenger" route="left" depart="16" departLane="0" />
    <vehicle id="right_77" type="passenger" route="right" depart="17" departLane="3" />
    <vehicle id="right_78" type="passenger" route="right" depart="17" departLane="4" />
    <vehicle id="left_79" type="passenger" route="left" depart="17" departLane="3" />
    <vehicle id="left_80" type="passenger" route="left" depart="17" departLane="1" />
    <vehicle id="left_81" type="passenger" route="left" depart="17" departLane="2" />
    <vehicle id="left_82" type="passenger" route="left" depart="17" departLane="4" />
    <vehicle id="left_83" type="passenger" route="left" depart="17" departLane="0" />
    <vehicle id="up_84" type="passenger" route="up" depart="17" departLane="2" />
    <vehicle id="leftTurn2_85" type="passenger" route="leftTurn2" depart="17" departLane="1" />
    <vehicle id="rightTurn4_86" type="passenger" route="rightTurn4" depart="17" departLane="0" />
    <vehicle id="right_87" type="passenger" route="right" depart="18" departLane="1" />
    <vehicle id="right_88" type="passenger" route="right" depart="18" departLane="1" />
    <vehicle id="left_89" type="passenger" route="left" depart="18" departLane="3" />
    <vehicle id="down_90" type="passenger" route="down" depart="18" departLane="4" />
    <vehicle id="right_91" type="passenger" route="right" depart="19" departLane="1" />
    <vehicle id="right_92" type="truck" route="right" depart="19" departLane="4" />
    <vehicle id="right_93" type="passenger" route="right" depart="19" departLane="4" />
    <vehicle id="left_94" type="passenger" route="left" depart="19" departLane="0" />
    <vehicle id="left_95" type="passenger" route="left" depart="19" departLane="4" />
    <vehicle id="down_96" type="passenger" route="down" depart="19" departLane="4" />
    <vehicle id="down_97" type="passenger" route="down" depart="19" departLane="4" />
    <vehicle id="right_98" type="passenger" route="right" depart="20" departLane="0" />
    <vehicle id="left_99" type="passenger" route="left" depart="20" departLane="4" />
    <vehicle id="up_100" type="passenger" route="up" depart="20" departLane="2" />
    <vehicle id="right_101" type="passenger" route="right" depart="21" departLane="1" />
    <vehicle id="right_102" type="passenger" route="right" depart="21" departLane="0" />
    <vehicle id="left_103" type="passenger" route="left" depart="21" departLane="3" />
    <vehicle id="down_104" type="truck" route="down" depart="21" departLane="3" />
    <vehicle id="leftTurn1_105" type="passenger" route="leftTurn1" depart="21" departLane="0" />
    <vehicle id="right_106" type="passenger" route="right" depart="22" departLane="0" />
    <vehicle id="left_107" type="passenger" route="left" depart="22" departLane="3" />
    <vehicle id="left_108" type="passenger" route="left" depart="22" departLane="4" />
    <vehicle id="down_109" type="passenger" route="down" depart="22" departLane="1" />
    <vehicle id="down_110" type="passenger" route="down" depart="22" departLane="4" />
    <vehicle id="up_111" type="passenger" route="up" depart="22" departLane="0" />
    <vehicle id="leftTurn1_112" type="passenger" route="leftTurn1" depart="22" departLane="3" />
    <vehicle id="left_113" type="passenger" route="left" depart="23" departLane="0" />
    <vehicle id="up_114" type="passenger" route="up" depart="23" departLane="4" />
    <vehicle id="up_115" type="passenger" route="up" depart="23" departLane="0" />
    <vehicle id="right_116" type="passenger" route="right" depart="24" departLane="2" />
    <vehicle id="right_117" type="passenger" route="right" depart="24" departLane="4" />
    <vehicle id="right_118" type="passenger" route="right" depart="24" departLane="0" />
    <vehicle id="left_119" type="passenger" route="left" depart="24" departLane="0" />
    <vehicle id="down_120" type="bus" route="down" depart="24" departLane="2" />
    <vehicle id="leftTurn2_121" type="passenger" route="leftTurn2" depart="24" departLane="3" />
    <vehicle id="right_122" type="truck" route="right" depart="25" departLane="3" />
    <vehicle id="left_123" type="passenger" route="left" depart="26" departLane="1" />
    <vehicle id="up_124" type="passenger" route="up" depart="26" departLane="2" />
    <vehicle id="up_125" type="passenger" route="up" depart="26" departLane="3" />
    <vehicle id="leftTurn1_126" type="truck" route="leftTurn1" depart="26" departLane="1" />
    <vehicle id="right_127" type="passenger" route="right" depart="27" departLane="0" />
    <vehicle id="left_128" type="passenger" route="left" depart="27" departLane="0" />
    <vehicle id="down_129" type="passenger" route="down" depart="27" departLane="0" />
    <vehicle id="up_130" type="passenger" route="up" depart="27" departLane="0" />
    <vehicle id="left_131" type="passenger" route="left" depart="28" departLane="4" />
    <vehicle id="left_132" type="passenger" route="left" depart="28" departLane="0" />
    <vehicle id="up_133" type="passenger" route="up" depart="28" departLane="2" />
    <vehicle id="up_134" type="passenger" route="up" depart="28" departLane="1" />
    <vehicle id="right_135" type="truck" route="right" depart="29" departLane="2" />
    <vehicle id="left_136" type="truck" route="left" depart="29" departLane="0" />
    <vehicle id="up_137" type="passenger" route="up" depart="29" departLane="4" />
    <vehicle id="up_138" type="passenger" route="up" depart="29" departLane="0" />
    <vehicle id="left_139" type="passenger" route="left" depart="30" departLane="3" />
    <vehicle id="left_140" type="passenger" route="left" depart="30" departLane="4" />
    <vehicle id="left_141" type="passenger" route="left" depart="30" departLane="0" />
    <vehicle id="down_142" type="passenger" route="down" depart="30" departLane="1" />
    <vehicle id="right_143" type="truck" route="right" depart="31" departLane="1" />
    <vehicle id="left_144" type="passenger" route="left" depart="31" departLane="3" />
    <vehicle id="left_145" type="truck" route="left" depart="31" departLane="2" />
    <vehicle id="left_146" type="passenger" route="left" depart="31" departLane="0" />
    <vehicle id="up_147" type="passenger" route="up" depart="31" departLane="3" />
    <vehicle id="up_148" type="passenger" route="up" depart="32" departLane="4" />
    <vehicle id="leftTurn2_149" type="passenger" route="leftTurn2" depart="32" departLane="4" />
    <vehicle id="rightTurn2_150" type="passenger" route="rightTurn2" depart="32" departLane="3" />
    <vehicle id="right_151" type="passenger" route="right" depart="33" departLane="0" />
    <vehicle id="right_152" type="passenger" route="right" depart="33" departLane="3" />
    <vehicle id="left_153" type="passenger" route="left" depart="33" departLane="4" />
    <vehicle id="left_154" type="passenger" route="left" depart="33" departLane="3" />
    <vehicle id="right_155" type="passenger" route="right" depart="34" departLane="3" />
    <vehicle id="left_156" type="passenger" route="left" depart="34" departLane="0" />
    <vehicle id="left_157" type="passenger" route="left" depart="34" departLane="4" />
    <vehicle id="left_158" type="passenger" route="left" depart="34" departLane="1" />
    <vehicle id="left_159" type="passenger" route="left" depart="34" departLane="1" />
    <vehicle id="right_160" type="passenger" route="right" depart="35" departLane="0" />
    <vehicle id="right_161" type="truck" route="right" depart="35" departLane="3" />
    <vehicle id="right_162" type="passenger" route="right" depart="35" departLane="4" />
    <vehicle id="right_163" type="passenger" route="right" depart="35" departLane="3" />
    <vehicle id="left_164" type="passenger" route="left" depart="35" departLane="4" />
    <vehicle id="down_165" type="passenger" route="down" depart="35" departLane="0" />
    <vehicle id="right_166" type="passenger" route="right" depart="36" departLane="4" />
    <vehicle id="right_167" type="passenger" route="right" depart="36" departLane="1" />
    <vehicle id="down_168" type="truck" route="down" depart="36" departLane="2" />
    <vehicle id="down_169" type="passenger" route="down" depart="36" departLane="4" />
    <vehicle id="down_170" type="truck" route="down" depart="36" departLane="3" />
    <vehicle id="up_171" type="passenger" route="up" depart="36" departLane="2" />
    <vehicle id="up_172" type="passenger" route="up" depart="36" departLane="1" />
    <vehicle id="right_173" type="truck" route="right" depart="37" departLane="0" />
    <vehicle id="down_174" type="passenger" route="down" depart="37" departLane="2" />
    <vehicle id="up_175" type="passenger" route="up" depart="37" departLane="1" />
    <vehicle id="right_176" type="passenger" route="right" depart="38" departLane="0" />
    <vehicle id="right_177" type="passenger" route="right" depart="38" departLane="3" />
    <vehicle id="down_178" type="passenger" route="down" depart="38" departLane="3" />
    <vehicle id="up_179" type="passenger" route="up" depart="38" departLane="4" />
    <vehicle id="right_180" type="passenger" route="right" depart="39" departLane="1" />
    <vehicle id="right_181" type="passenger" route="right" depart="39" departLane="2" />
    <vehicle id="right_182" type="passenger" route="right" depart="39" departLane="2" />
    <vehicle id="left_183" type="passenger" route="left" depart="39" departLane="3" />
    <vehicle id="up_184" type="passenger" route="up" depart="39" departLane="4" />
    <vehicle id="right_185" type="passenger" route="right" depart="40" departLane="1" />
    <vehicle id="left_186" type="passenger" route="left" depart="40" departLane="0" />
    <vehicle id="down_187" type="passenger" route="down" depart="40" departLane="0" />
    <vehicle id="up_188" type="passenger" route="up" depart="40" departLane="4" />
    <vehicle id="up_189" type="passenger" route="up" depart="40" departLane="3" />
    <vehicle id="up_190" type="passenger" route="up" depart="40" departLane="0" />
    <vehicle id="right_191" type="passenger" route="right" depart="41" departLane="1" />
    <vehicle id="left_192" type="passenger" route="left" depart="41" departLane="3" />
    <vehicle id="left_193" type="passenger" route="left" depart="41" departLane="1" />
    <vehicle id="down_194" type="truck" route="down" depart="41" departLane="1" />
    <vehicle id="up_195" type="passenger" route="up" depart="41" departLane="2" />
    <vehicle id="right_196" type="passenger" route="right" depart="42" departLane="0" />
    <vehicle id="right_197" type="passenger" route="right" depart="42" departLane="2" />
    <vehicle id="right_198" type="passenger" route="right" depart="42" departLane="1" />
    <vehicle id="right_199" type="passenger" route="right" depart="42" departLane="0" />
    <vehicle id="left_200" type="passenger" route="left" depart="42" departLane="2" />
    <vehicle id="right_201" type="passenger" route="right" depart="43" departLane="4" />
    <vehicle id="left_202" type="passenger" route="left" depart="43" departLane="3" />
    <vehicle id="down_203" type="truck" route="down" depart="43" departLane="1" />
    <vehicle id="up_204" type="passenger" route="up" depart="43" departLane="4" />
    <vehicle id="right_205" type="truck" route="right" depart="44" departLane="4" />
    <vehicle id="right_206" type="passenger" route="right" depart="44" departLane="2" />
    <vehicle id="right_207" type="passenger" route="right" depart="45" departLane="0" />
    <vehicle id="right_208" type="passenger" route="right" depart="45" departLane="3" />
    <vehicle id="right_209" type="passenger" route="right" depart="45" departLane="3" />
    <vehicle id="left_210" type="passenger" route="left" depart="45" departLane="1" />
    <vehicle id="left_211" type="truck" route="left" depart="45" departLane="1" />
    <vehicle id="up_212" type="passenger" route="up" depart="45" departLane="0" />
    <vehicle id="up_213" type="passenger" route="up" depart="45" departLane="2" />
    <vehicle id="right_214" type="truck" route="right" depart="46" departLane="3" />
    <vehicle id="right_215" type="passenger" route="right" depart="46" departLane="1" />
    <vehicle id="left_216" type="passenger" route="left" depart="46" departLane="0" />
    <vehicle id="left_217" type="passenger" route="left" depart="46" departLane="4" />
    <vehicle id="left_218" type="truck" route="left" depart="46" departLane="1" />
    <vehicle id="left_219" type="passenger" route="left" depart="46" departLane="1" />
    <vehicle id="up_220" type="passenger" route="up" depart="46" departLane="4" />
    <vehicle id="leftTurn2_221" type="passenger" route="leftTurn2" depart="46" departLane="1" />
    <vehicle id="left_222" type="passenger" route="left" depart="47" departLane="2" />
    <vehicle id="left_223" type="passenger" route="left" depart="47" departLane="1" />
    <vehicle id="left_224" type="passenger" route="left" depart="47" departLane="3" />
    <vehicle id="up_225" type="passenger" route="up" depart="47" departLane="3" />
    <vehicle id="up_226" type="passenger" route="up" depart="47" departLane="1" />
    <vehicle id="right_227" type="passenger" route="right" depart="48" departLane="0" />
    <vehicle id="left_228" type="passenger" route="left" depart="48" departLane="1" />
    <vehicle id="down_229" type="passenger" route="down" depart="48" departLane="1" />
    <vehicle id="down_230" type="truck" route="down" depart="48" departLane="4" />
    <vehicle id="right_231" type="passenger" route="right" depart="49" departLane="3" />
    <vehicle id="leftTurn2_232" type="passenger" route="leftTurn2" depart="49" departLane="4" />
    <vehicle id="emergency_233" type="emergency" route="left" depart="50" departLane="3" />
    <vehicle id="right_234" type="truck" route="right" depart="50" departLane="0" />
    <vehicle id="left_235" type="passenger" route="left" depart="50" departLane="3" />
    <vehicle id="left_236" type="passenger" route="left" depart="50" departLane="3" />
    <vehicle id="down_237" type="truck" route="down" depart="50" departLane="1" />
    <vehicle id="up_238" type="passenger" route="up" depart="50" departLane="4" />
    <vehicle id="up_239" type="passenger" route="up" depart="50" departLane="3" />
    <vehicle id="rightTurn2_240" type="passenger" route="rightTurn2" depart="50" departLane="2" />
    <vehicle id="right_241" type="passenger" route="right" depart="51" departLane="2" />
    <vehicle id="left_242" type="passenger" route="left" depart="51" departLane="1" />
    <vehicle id="up_243" type="passenger" route="up" depart="51" departLane="4" />
    <vehicle id="leftTurn2_244" type="passenger" route="leftTurn2" depart="51" departLane="0" />
    <vehicle id="right_245" type="passenger" route="right" depart="52" departLane="0" />
    <vehicle id="right_246" type="passenger" route="right" depart="52" departLane="0" />
    <vehicle id="right_247" type="passenger" route="right" depart="52" departLane="2" />
    <vehicle id="right_248" type="passenger" route="right" depart="52" departLane="1" />
    <vehicle id="left_249" type="passenger" route="left" depart="52" departLane="3" />
    <vehicle id="leftTurn2_250" type="passenger" route="leftTurn2" depart="52" departLane="2" />
    <vehicle id="leftTurn2_251" type="passenger" route="leftTurn2" depart="52" departLane="2" />
    <vehicle id="rightTurn3_252" type="passenger" route="rightTurn3" depart="52" departLane="1" />
    <vehicle id="right_253" type="passenger" route="right" depart="53" departLane="0" />
    <vehicle id="left_254" type="passenger" route="left" depart="53" departLane="1" />
    <vehicle id="left_255" type="passenger" route="left" depart="53" departLane="1" />
    <vehicle id="left_256" type="passenger" route="left" depart="53" departLane="3" />
    <vehicle id="left_257" type="passenger" route="left" depart="53" departLane="4" />
    <vehicle id="left_258" type="passenger" route="left" depart="53" departLane="0" />
    <vehicle id="down_259" type="truck" route="down" depart="53" departLane="3" />
    <vehicle id="down_260" type="passenger" route="down" depart="53" departLane="1" />
    <vehicle id="leftTurn2_261" type="passenger" route="leftTurn2" depart="53" departLane="4" />
    <vehicle id="right_262" type="passenger" route="right" depart="54" departLane="4" />
    <vehicle id="left_263" type="passenger" route="left" depart="54" departLane="2" />
    <vehicle id="up_264" type="passenger" route="up" depart="54" departLane="1" />
    <vehicle id="leftTurn2_265" type="passenger" route="leftTurn2" depart="54" departLane="2" />
    <vehicle id="right_266" type="passenger" route="right" depart="56" departLane="4" />
    <vehicle id="right_267" type="passenger" route="right" depart="56" departLane="0" />
    <vehicle id="left_268" type="passenger" route="left" depart="56" departLane="4" />
    <vehicle id="left_269" type="passenger" route="left" depart="56" departLane="3" />
    <vehicle id="left_270" type="passenger" route="left" depart="56" departLane="3" />
    <vehicle id="up_271" type="passenger" route="up" depart="56" departLane="4" />
    <vehicle id="up_272" type="passenger" route="up" depart="56" departLane="0" />
    <vehicle id="left_273" type="passenger" route="left" depart="57" departLane="2" />
    <vehicle id="up_274" type="passenger" route="up" depart="57" departLane="1" />
    <vehicle id="right_275" type="passenger" route="right" depart="58" departLane="2" />
    <vehicle id="right_276" type="truck" route="right" depart="58" departLane="0" />
    <vehicle id="up_277" type="passenger" route="up" depart="58" departLane="3" />
    <vehicle id="up_278" type="passenger" route="up" depart="58" departLane="1" />
    <vehicle id="leftTurn2_279" type="passenger" route="leftTurn2" depart="58" departLane="0" />
    <vehicle id="leftTurn2_280" type="passenger" route="leftTurn2" depart="58" departLane="2" />
    <vehicle id="rightTurn1_281" type="passenger" route="rightTurn1" depart="58" departLane="0" />
    <vehicle id="right_282" type="passenger" route="right" depart="59" departLane="0" />
    <vehicle id="right_283" type="truck" route="right" depart="59" departLane="1" />
    <vehicle id="left_284" type="passenger" route="left" depart="59" departLane="3" />
    <vehicle id="left_285" type="passenger" route="left" depart="59" departLane="0" />
    <vehicle id="leftTurn2_286" type="passenger" route="leftTurn2" depart="59" departLane="0" />
    <vehicle id="right_287" type="passenger" route="right" depart="60" departLane="4" />
    <vehicle id="right_288" type="passenger" route="right" depart="60" departLane="1" />
    <vehicle id="right_289" type="passenger" route="right" depart="60" departLane="0" />
    <vehicle id="left_290" type="passenger" route="left" depart="60" departLane="2" />
    <vehicle id="up_291" type="passenger" route="up" depart="60" departLane="1" />
    <vehicle id="left_292" type="passenger" route="left" depart="61" departLane="0" />
    <vehicle id="left_293" type="passenger" route="left" depart="61" departLane="2" />
    <vehicle id="right_294" type="passenger" route="right" depart="62" departLane="3" />
    <vehicle id="up_295" type="passenger" route="up" depart="62" departLane="1" />
    <vehicle id="right_296" type="passenger" route="right" depart="63" departLane="2" />
    <vehicle id="left_297" type="passenger" route="left" depart="63" departLane="3" />
    <vehicle id="left_298" type="passenger" route="left" depart="63" departLane="4" />
    <vehicle id="left_299" type="truck" route="left" depart="63" departLane="2" />
    <vehicle id="up_300" type="passenger" route="up" depart="63" departLane="4" />
    <vehicle id="right_301" type="passenger" route="right" depart="64" departLane="3" />
    <vehicle id="left_302" type="passenger" route="left" depart="64" departLane="4" />
    <vehicle id="left_303" type="passenger" route="left" depart="64" departLane="3" />
    <vehicle id="right_304" type="passenger" route="right" depart="65" departLane="0" />
    <vehicle id="right_305" type="passenger" route="right" depart="65" departLane="2" />
    <vehicle id="left_306" type="passenger" route="left" depart="65" departLane="3" />
    <vehicle id="left_307" type="passenger" route="left" depart="65" departLane="4" />
    <vehicle id="up_308" type="passenger" route="up" depart="65" departLane="3" />
    <vehicle id="up_309" type="passenger" route="up" depart="65" departLane="4" />
    <vehicle id="right_310" type="passenger" route="right" depart="66" departLane="0" />
    <vehicle id="left_311" type="passenger" route="left" depart="66" departLane="0" />
    <vehicle id="down_312" type="truck" route="down" depart="66" departLane="3" />
    <vehicle id="right_313" type="passenger" route="right" depart="67" departLane="0" />
    <vehicle id="right_314" type="passenger" route="right" depart="67" departLane="4" />
    <vehicle id="right_315" type="passenger" route="right" depart="67" departLane="4" />
    <vehicle id="left_316" type="passenger" route="left" depart="67" departLane="0" />
    <vehicle id="left_317" type="passenger" route="left" depart="68" departLane="2" />
    <vehicle id="left_318" type="passenger" route="left" depart="68" departLane="3" />
    <vehicle id="up_319" type="passenger" route="up" depart="68" departLane="2" />
    <vehicle id="right_320" type="passenger" route="right" depart="69" departLane="1" />
    <vehicle id="right_321" type="passenger" route="right" depart="69" departLane="2" />
    <vehicle id="left_322" type="passenger" route="left" depart="69" departLane="2" />
    <vehicle id="up_323" type="passenger" route="up" depart="69" departLane="0" />
    <vehicle id="right_324" type="passenger" route="right" depart="70" departLane="2" />
    <vehicle id="left_325" type="passenger" route="left" depart="70" departLane="2" />
    <vehicle id="left_326" type="passenger" route="left" depart="70" departLane="4" />
    <vehicle id="up_327" type="passenger" route="up" depart="70" departLane="0" />
    <vehicle id="right_328" type="passenger" route="right" depart="71" departLane="3" />
    <vehicle id="left_329" type="passenger" route="left" depart="71" departLane="3" />
    <vehicle id="left_330" type="passenger" route="left" depart="71" departLane="2" />
    <vehicle id="left_331" type="passenger" route="left" depart="71" departLane="3" />