<routes>
        <vType id="passenger" accel="5" decel="10" sigma="0.5" length="5" minGap="2" departSpeed="16.67" maxSpeed="16.67" guiShape="passenger"/>
        <vType id="emergency" accel="5" decel="10" sigma="0.5" length="7" minGap="2" departSpeed="16.67" maxSpeed="35" guiShape="emergency"/>
        <vType id="bus" accel="5" decel="10" sigma="0.5" length="12" minGap="2" departSpeed="12" maxSpeed="12" guiShape="bus" color="0,0,255"/>
        <vType id="truck" accel="5" decel="10" sigma="0.5" length="10" minGap="2" departSpeed="10" maxSpeed="10" guiShape="truck" color="0,255,0"/>
        
        <route id="right" edges="3c c4" />
        <route id="left" edges="4c c3" />
        <route id="down" edges="1c c2" />
        <route id="up" edges="2c c1" />
        <route id="leftTurn1" edges="4c c2" />
        <route id="leftTurn2" edges="3c c1" />
        <route id="rightTurn1" edges="2c c4" />
        <route id="rightTurn2" edges="4c c1" />
        <route id="rightTurn3" edges="1c c3" />
        <route id="rightTurn4" edges="3c c2" />
        <route id="uTurn1" edges="1c c1" />
        <route id="uTurn2" edges="2c c2" />
        
    <vehicle id="right_0" type="passenger" route="right" depart="0" departLane="4" />
    <vehicle id="right_1" type="passenger" route="right" depart="0" departLane="3" />
    <vehicle id="right_2" type="passenger" route="right" depart="0" departLane="1" />
    <vehicle id="left_3" type="passenger" route="left" depart="0" departLane="3" />
    <vehicle id="left_4" type="passenger" route="left" depart="0" departLane="1" />
    <vehicle id="down_5" type="passenger" route="down" depart="0" departLane="3" />
    <vehicle id="down_6" type="passenger" route="down" depart="0" departLane="1" />
    <vehicle id="down_7" type="passenger" route="down" depart="0" departLane="2" />
    <vehicle id="up_8" type="passenger" route="up" depart="0" departLane="1" />
    <vehicle id="right_9" type="passenger" route="right" depart="1" departLane="3" />
    <vehicle id="right_10" type="passenger" route="right" depart="1" departLane="2" />
    <vehicle id="right_11" type="passenger" route="right" depart="1" departLane="2" />
    <vehicle id="left_12" type="passenger" route="left" depart="1" departLane="1" />
    <vehicle id="left_13" type="truck" route="left" depart="1" departLane="1" />
    <vehicle id="left_14" type="passenger" route="left" depart="1" departLane="4" />
    <vehicle id="down_15" type="bus" route="down" depart="1" departLane="4" />
    <vehicle id="up_16" type="passenger" route="up" depart="1" departLane="1" />
    <vehicle id="leftTurn2_17" type="passenger" route="leftTurn2" depart="1" departLane="2" />
    <vehicle id="right_18" type="passenger" route="right" depart="2" departLane="1" />
    <vehicle id="right_19" type="passenger" route="right" depart="2" departLane="4" />
    <vehicle id="down_20" type="passenger" route="down" depart="2" departLane="3" />
    <vehicle id="leftTurn1_21" type="passenger" route="leftTurn1" depart="2" departLane="4" />
    <vehicle id="right_22" type="passenger" route="right" depart="3" departLane="4" />
    <vehicle id="left_23" type="truck" route="left" depart="3" departLane="1" />
    <vehicle id="up_24" type="passenger" route="up" depart="3" departLane="1" />
    <vehicle id="right_25" type="passenger" route="right" depart="4" departLane="3" />
    <vehicle id="right_26" type="passenger" route="right" depart="4" departLane="4" />
    <vehicle id="right_27" type="passenger" route="right" depart="4" departLane="4" />
    <vehicle id="right_28" type="passenger" route="right" depart="4" departLane="0" />
    <vehicle id="right_29" type="truck" route="right" depart="4" departLane="4" />
    <vehicle id="left_30" type="passenger" route="left" depart="4" departLane="4" />
    <vehicle id="left_31" type="passenger" route="left" depart="4" departLane="0" />
    <vehicle id="up_32" type="passenger" route="up" depart="4" departLane="1" />
    <vehicle id="up_33" type="passenger" route="up" depart="4" departLane="3" />
    <vehicle id="right_34" type="passenger" route="right" depart="5" departLane="3" />
    <vehicle id="left_35" type="passenger" route="left" depart="5" departLane="2" />
    <vehicle id="up_36" type="passenger" route="up" depart="5" departLane="4" />
    <vehicle id="leftTurn2_37" type="passenger" route="leftTurn2" depart="5" departLane="0" />
    <vehicle id="right_38" type="passenger" route="right" depart="6" departLane="2" />
    <vehicle id="left_39" type="passenger" route="left" depart="6" departLane="1" />
    <vehicle id="left_40" type="passenger" route="left" depart="6" departLane="3" />
    <vehicle id="left_41" type="passenger" route="left" depart="6" departLane="2" />
    <vehicle id="down_42" type="passenger" route="down" depart="6" departLane="0" />
    <vehicle id="up_43" type="passenger" route="up" depart="6" departLane="0" />
    <vehicle id="leftTurn2_44" type="passenger" route="leftTurn2" depart="6" departLane="2" />
    <vehicle id="left_45" type="passenger" route="left" depart="7" departLane="2" />
    <vehicle id="left_46" type="passenger" route="left" depart="7" departLane="4" />
    <vehicle id="up_47" type="passenger" route="up" depart="7" departLane="3" />
    <vehicle id="right_48" type="passenger" route="right" depart="8" departLane="1" />
    <vehicle id="leftTurn2_49" type="passenger" route="leftTurn2" depart="8" departLane="2" />
    <vehicle id="right_50" type="passenger" route="right" depart="9" departLane="4" />
    <vehicle id="left_51" type="passenger" route="left" depart="9" departLane="1" />
    <vehicle id="left_52" type="passenger" route="left" depart="9" departLane="3" />
    <vehicle id="up_53" type="passenger" route="up" depart="9" departLane="1" />
    <vehicle id="leftTurn2_54" type="passenger" route="leftTurn2" depart="9" departLane="4" />
    <vehicle id="right_55" type="passenger" route="right" depart="10" departLane="3" />
    <vehicle id="right_56" type="passenger" route="right" depart="10" departLane="1" />
    <vehicle id="left_57" type="truck" route="left" depart="10" departLane="0" />
    <vehicle id="leftTurn2_58" type="passenger" route="leftTurn2" depart="10" departLane="3" />
    <vehicle id="left_59" type="passenger" route="left" depart="11" departLane="0" />
    <vehicle id="left_60" type="passenger" route="left" depart="11" departLane="0" />
    <vehicle id="left_61" type="passenger" route="left" depart="11" departLane="0" />
    <vehicle id="up_62" type="passenger" route="up" depart="11" departLane="4" />
    <vehicle id="down_63" type="passenger" route="down" depart="12" departLane="3" />
    <vehicle id="leftTurn1_64" type="passenger" route="leftTurn1" depart="12" departLane="3" />
    <vehicle id="right_65" type="passenger" route="right" depart="13" departLane="3" />
    <vehicle id="down_66" type="passenger" route="down" depart="13" departLane="2" />
    <vehicle id="up_67" type="passenger" route="up" depart="13" departLane="3" />
    <vehicle id="leftTurn2_68" type="passenger" route="leftTurn2" depart="13" departLane="4" />
    <vehicle id="right_69" type="passenger" route="right" depart="14" departLane="1" />
    <vehicle id="right_70" type="passenger" route="right" depart="14" departLane="2" />
    <vehicle id="right_71" type="passenger" route="right" depart="14" departLane="1" />
    <vehicle id="left_72" type="passenger" route="left" depart="14" departLane="4" />
    <vehicle id="left_73" type="passenger" route="left" depart="14" departLane="3" />
    <vehicle id="up_74" type="passenger" route="up" depart="14" departLane="0" />
    <vehicle id="up_75" type="passenger" route="up" depart="14" departLane="3" />
    <vehicle id="leftTurn2_76" type="passenger" route="leftTurn2" depart="14" departLane="1" />
    <vehicle id="right_77" type="passenger" route="right" depart="15" departLane="0" />
    <vehicle id="right_78" type="passenger" route="right" depart="15" departLane="4" />
    <vehicle id="left_79" type="truck" route="left" depart="15" departLane="0" />
    <vehicle id="right_80" type="passenger" route="right" depart="16" departLane="2" />
    <vehicle id="right_81" type="passenger" route="right" depart="16" departLane="3" />
    <vehicle id="up_82" type="passenger" route="up" depart="16" departLane="4" />
    <vehicle id="leftTurn2_83" type="truck" route="leftTurn2" depart="16" departLane="1" />
    <vehicle id="leftTurn2_84" type="passenger" route="leftTurn2" depart="16" departLane="1" />
    <vehicle id="leftTurn2_85" type="passenger" route="leftTurn2" depart="16" departLane="1" />
    <vehicle id="right_86" type="passenger" route="right" depart="17" departLane="0" />
    <vehicle id="right_87" type="passenger" route="right" depart="17" departLane="2" />
    <vehicle id="left_88" type="passenger" route="left" depart="17" departLane="3" />
    <vehicle id="left_89" type="passenger" route="left" depart="17" departLane="4" />
    <vehicle id="left_90" type="passenger" route="left" depart="17" departLane="3" />
    <vehicle id="left_91" type="passenger" route="left" depart="17" departLane="4" />
    <vehicle id="down_92" type="passenger" route="down" depart="17" departLane="4" />
    <vehicle id="right_93" type="passenger" route="right" depart="18" departLane="0" />
    <vehicle id="left_94" type="passenger" route="left" depart="18" departLane="4" />
    <vehicle id="left_95" type="passenger" route="left" depart="18" departLane="3" />
    <vehicle id="left_96" type="passenger" route="left" depart="18" departLane="1" />
    <vehicle id="left_97" type="passenger" route="left" depart="18" departLane="3" />
    <vehicle id="left_98" type="passenger" route="left" depart="18" departLane="0" />
    <vehicle id="right_99" type="passenger" route="right" depart="19" departLane="2" />
    <vehicle id="right_100" type="passenger" route="right" depart="19" departLane="1" />
    <vehicle id="left_101" type="passenger" route="left" depart="19" departLane="2" />
    <vehicle id="left_102" type="passenger" route="left" depart="19" departLane="2" />
    <vehicle id="right_103" type="passenger" route="right" depart="20" departLane="4" />
    <vehicle id="right_104" type="passenger" route="right" depart="20" departLane="3" />
    <vehicle id="right_105" type="passenger" route="right" depart="20" departLane="2" />
    <vehicle id="left_106" type="passenger" route="left" depart="20" departLane="2" />
    <vehicle id="left_107" type="passenger" route="left" depart="20" departLane="3" />
    <vehicle id="left_108" type="passenger" route="left" depart="20" departLane="4" />
    <vehicle id="left_109" type="passenger" route="left" depart="20" departLane="4" />
    <vehicle id="up_110" type="passenger" route="up" depart="20" departLane="3" />
    <vehicle id="right_111" type="truck" route="right" depart="21" departLane="1" />
    <vehicle id="left_112" type="passenger" route="left" depart="21" departLane="3" />
    <vehicle id="left_113" type="passenger" route="left" depart="21" departLane="0" />
    <vehicle id="left_114" type="passenger" route="left" depart="21" departLane="2" />
    <vehicle id="up_115" type="passenger" route="up" depart="21" departLane="2" />
    <vehicle id="leftTurn2_116" type="passenger" route="leftTurn2" depart="21" departLane="0" />
    <vehicle id="right_117" type="passenger" route="right" depart="22" departLane="4" />
    <vehicle id="left_118" type="passenger" route="left" depart="22" departLane="4" />
    <vehicle id="left_119" type="passenger" route="left" depart="22" departLane="1" />
    <vehicle id="left_120" type="passenger" route="left" depart="22" departLane="4" />
    <vehicle id="up_121" type="passenger" route="up" depart="22" departLane="0" />
    <vehicle id="leftTurn1_122" type="truck" route="leftTurn1" depart="22" departLane="0" />
    <vehicle id="left_123" type="passenger" route="left" depart="23" departLane="1" />
    <vehicle id="left_124" type="passenger" route="left" depart="23" departLane="3" />
    <vehicle id="up_125" type="passenger" route="up" depart="23" departLane="4" />
    <vehicle id="leftTurn2_126" type="passenger" route="leftTurn2" depart="23" departLane="1" />
    <vehicle id="right_127" type="passenger" route="right" depart="24" departLane="4" />
    <vehicle id="right_128" type="passenger" route="right" depart="24" departLane="4" />
    <vehicle id="left_129" type="passenger" route="left" depart="24" departLane="2" />
    <vehicle id="left_130" type="passenger" route="left" depart="24" departLane="4" />
    <vehicle id="up_131" type="passenger" route="up" depart="24" departLane="4" />
    <vehicle id="leftTurn2_132" type="passenger" route="leftTurn2" depart="24" departLane="3" />
    <vehicle id="right_133" type="passenger" route="right" depart="25" departLane="1" />
    <vehicle id="right_134" type="passenger" route="right" depart="25" departLane="0" />
    <vehicle id="right_135" type="truck" route="right" depart="25" departLane="2" />
    <vehicle id="left_136" type="passenger" route="left" depart="25" departLane="0" />
    <vehicle id="up_137" type="passenger" route="up" depart="25" departLane="4" />
    <vehicle id="up_138" type="passenger" route="up" depart="25" departLane="2" />
    <vehicle id="leftTurn2_139" type="passenger" route="leftTurn2" depart="25" departLane="3" />
    <vehicle id="leftTurn2_140" type="passenger" route="leftTurn2" depart="25" departLane="2" />
    <vehicle id="right_141" type="passenger" route="right" depart="26" departLane="3" />
    <vehicle id="right_142" type="passenger" route="right" depart="26" departLane="4" />
    <vehicle id="right_143" type="truck" route="right" depart="26" departLane="3" />
    <vehicle id="right_144" type="passenger" route="right" depart="26" departLane="1" />
    <vehicle id="right_145" type="passenger" route="right" depart="26" departLane="3" />
    <vehicle id="left_146" type="truck" route="left" depart="26" departLane="2" />
    <vehicle id="left_147" type="passenger" route="left" depart="26" departLane="4" />
    <vehicle id="left_148" type="passenger" route="left" depart="26" departLane="1" />
    <vehicle id="left_149" type="passenger" route="left" depart="26" departLane="1" />
    <vehicle id="leftTurn1_150" type="passenger" route="leftTurn1" depart="26" departLane="1" />
    <vehicle id="rightTurn1_151" type="passenger" route="rightTurn1" depart="26" departLane="1" />
    <vehicle id="right_152" type="passenger" route="right" depart="27" departLane="2" />
    <vehicle id="right_153" type="passenger" route="right" depart="27" departLane="0" />
    <vehicle id="right_154" type="passenger" route="right" depart="27" departLane="1" />
    <vehicle id="left_155" type="passenger" route="left" depart="27" departLane="1" />
    <vehicle id="left_156" type="passenger" route="left" depart="27" departLane="1" />
    <vehicle id="down_157" type="passenger" route="down" depart="27" departLane="4" />
    <vehicle id="up_158" type="passenger" route="up" depart="27" departLane="1" />
    <vehicle id="leftTurn2_159" type="passenger" route="leftTurn2" depart="27" departLane="0" />
    <vehicle id="right_160" type="passenger" route="right" depart="28" departLane="3" />
    <vehicle id="left_161" type="passenger" route="left" depart="28" departLane="1" />
    <vehicle id="down_162" type="passenger" route="down" depart="28" departLane="1" />
    <vehicle id="rightTurn4_163" type="passenger" route="rightTurn4" depart="28" departLane="3" />
    <vehicle id="right_164" type="passenger" route="right" depart="29" departLane="2" />
    <vehicle id="left_165" type="passenger" route="left" depart="29" departLane="1" />
    <vehicle id="left_166" type="passenger" route="left" depart="29" departLane="1" />
    <vehicle id="left_167" type="passenger" route="left" depart="29" departLane="3" />
    <vehicle id="down_168" type="passenger" route="down" depart="29" departLane="3" />
    <vehicle id="down_169" type="passenger" route="down" depart="29" departLane="3" />
    <vehicle id="up_170" type="passenger" route="up" depart="29" departLane="0" />
    <vehicle id="leftTurn1_171" type="passenger" route="leftTurn1" depart="29" departLane="3" />
    <vehicle id="right_172" type="passenger" route="right" depart="30" departLane="2" />
    <vehicle id="left_173" type="passenger" route="left" depart="30" departLane="4" />
    <vehicle id="up_174" type="passenger" route="up" depart="30" departLane="0" />
    <vehicle id="leftTurn2_175" type="passenger" route="leftTurn2" depart="30" departLane="4" />
    <vehicle id="right_176" type="passenger" route="right" depart="31" departLane="4" />
    <vehicle id="right_177" type="bus" route="right" depart="31" departLane="2" />
    <vehicle id="left_178" type="truck" route="left" depart="31" departLane="1" />
    <vehicle id="left_179" type="passenger" route="left" depart="31" departLane="3" />
    <vehicle id="left_180" type="passenger" route="left" depart="31" departLane="0" />
    <vehicle id="down_181" type="passenger" route="down" depart="31" departLane="3" />
    <vehicle id="leftTurn2_182" type="passenger" route="leftTurn2" depart="31" departLane="3" />
    <vehicle id="left_183" type="passenger" route="left" depart="32" departLane="2" />
    <vehicle id="left_184" type="passenger" route="left" depart="32" departLane="1" />
    <vehicle id="left_185" type="passenger" route="left" depart="32" departLane="4" />
    <vehicle id="down_186" type="passenger" route="down" depart="32" departLane="0" />
    <vehicle id="right_187" type="passenger" route="right" depart="33" departLane="0" />
    <vehicle id="right_188" type="passenger" route="right" depart="33" departLane="3" />
    <vehicle id="right_189" type="passenger" route="right" depart="33" departLane="1" />
    <vehicle id="right_190" type="passenger" route="right" depart="33" departLane="2" />
    <vehicle id="up_191" type="truck" route="up" depart="33" departLane="3" />
    <vehicle id="leftTurn2_192" type="passenger" route="leftTurn2" depart="33" departLane="1" />
    <vehicle id="right_193" type="passenger" route="right" depart="34" departLane="1" />
    <vehicle id="right_194" type="passenger" route="right" depart="34" departLane="1" />
    <vehicle id="left_195" type="passenger" route="left" depart="34" departLane="1" />
    <vehicle id="left_196" type="passenger" route="left" depart="34" departLane="4" />
    <vehicle id="leftTurn1_197" type="passenger" route="leftTurn1" depart="34" departLane="3" />
    <vehicle id="leftTurn1_198" type="passenger" route="leftTurn1" depart="34" departLane="0" />
    <vehicle id="leftTurn2_199" type="passenger" route="leftTurn2" depart="34" departLane="0" />
    <vehicle id="leftTurn2_200" type="passenger" route="leftTurn2" depart="34" departLane="0" />
    <vehicle id="right_201" type="passenger" route="right" depart="35" departLane="1" />
    <vehicle id="left_202" type="passenger" route="left" depart="35" departLane="3" />
    <vehicle id="left_203" type="passenger" route="left" depart="35" departLane="3" />
    <vehicle id="left_204" type="passenger" route="left" depart="35" departLane="1" />
    <vehicle id="left_205" type="passenger" route="left" depart="35" departLane="0" />
    <vehicle id="up_206" type="passenger" route="up" depart="35" departLane="0" />
    <vehicle id="right_207" type="passenger" route="right" depart="36" departLane="4" />
    <vehicle id="left_208" type="passenger" route="left" depart="36" departLane="2" />
    <vehicle id="left_209" type="passenger" route="left" depart="36" departLane="3" />
    <vehicle id="left_210" type="passenger" route="left" depart="36" departLane="3" />
    <vehicle id="leftTurn1_211" type="passenger" route="leftTurn1" depart="36" departLane="2" />
    <vehicle id="right_212" type="passenger" route="right" depart="37" departLane="1" />
    <vehicle id="left_213" type="passenger" route="left" depart="37" departLane="1" />
    <vehicle id="left_214" type="passenger" route="left" depart="37" departLane="0" />
    <vehicle id="left_215" type="passenger" route="left" depart="37" departLane="0" />
    <vehicle id="up_216" type="passenger" route="up" depart="37" departLane="2" />
    <vehicle id="leftTurn2_217" type="passenger" route="leftTurn2" depart="37" departLane="0" />
    <vehicle id="right_218" type="passenger" route="right" depart="38" departLane="2" />
    <vehicle id="left_219" type="passenger" route="left" depart="38" departLane="2" />
    <vehicle id="leftTurn1_220" type="passenger" route="leftTurn1" depart="38" departLane="4" />
    <vehicle id="right_221" type="passenger" route="right" depart="39" departLane="4" />
    <vehicle id="right_222" type="passenger" route="right" depart="39" departLane="4" />
    <vehicle id="left_223" type="passenger" route="left" depart="39" departLane="0" />
    <vehicle id="left_224" type="passenger" route="left" depart="39" departLane="4" />
    <vehicle id="left_225" type="passenger" route="left" depart="39" departLane="1" />
    <vehicle id="left_226" type="passenger" route="left" depart="39" departLane="1" />
    <vehicle id="leftTurn2_227" type="passenger" route="leftTurn2" depart="39" departLane="3" />
    <vehicle id="leftTurn2_228" type="passenger" route="leftTurn2" depart="39" departLane="0" />
    <vehicle id="right_229" type="passenger" route="right" depart="40" departLane="0" />
    <vehicle id="right_230" type="passenger" route="right" depart="40" departLane="3" />
    <vehicle id="left_231" type="passenger" route="left" depart="40" departLane="1" />
    <vehicle id="left_232" type="passenger" route="left" depart="40" departLane="1" />
    <vehicle id="leftTurn1_233" type="passenger" route="leftTurn1" depart="40" departLane="4" />
    <vehicle id="leftTurn1_234" type="passenger" route="leftTurn1" depart="40" departLane="1" />
    <vehicle id="leftTurn2_235" type="passenger" route="leftTurn2" depart="40" departLane="3" />
    <vehicle id="leftTurn2_236" type="passenger" route="leftTurn2" depart="40" departLane="3" />
    <vehicle id="left_237" type="passenger" route="left" depart="41" departLane="1" />
    <vehicle id="down_238" type="passenger" route="down" depart="41" departLane="2" />
    <vehicle id="right_239" type="passenger" route="right" depart="42" departLane="3" />
    <vehicle id="right_240" type="passenger" route="right" depart="42" departLane="4" />
    <vehicle id="down_241" type="passenger" route="down" depart="42" departLane="4" />
    <vehicle id="down_242" type="passenger" route="down" depart="42" departLane="2" />
    <vehicle id="right_243" type="passenger" route="right" depart="43" departLane="2" />
    <vehicle id="left_244" type="passenger" route="left" depart="43" departLane="3" />
    <vehicle id="up_245" type="passenger" route="up" depart="43" departLane="2" />
    <vehicle id="leftTurn1_246" type="passenger" route="leftTurn1" depart="43" departLane="4" />
    <vehicle id="leftTurn2_247" type="passenger" route="leftTurn2" depart="43" departLane="4" />
    <vehicle id="leftTurn2_248" type="passenger" route="leftTurn2" depart="43" departLane="0" />
    <vehicle id="right_249" type="passenger" route="right" depart="44" departLane="0" />
    <vehicle id="right_250" type="passenger" route="right" depart="44" departLane="0" />
    <vehicle id="left_251" type="passenger" route="left" depart="44" departLane="3" />
    <vehicle id="left_252" type="passenger" route="left" depart="44" departLane="3" />
    <vehicle id="leftTurn1_253" type="passenger" route="leftTurn1" depart="44" departLane="0" />
    <vehicle id="right_254" type="passenger" route="right" depart="45" departLane="2" />
    <vehicle id="right_255" type="passenger" route="right" depart="45" departLane="3" />
    <vehicle id="left_256" type="passenger" route="left" depart="45" departLane="1" />
    <vehicle id="up_257" type="passenger" route="up" depart="45" departLane="3" />
    <vehicle id="right_258" type="passenger" route="right" depart="46" departLane="4" />
    <vehicle id="right_259" type="passenger" route="right" depart="46" departLane="1" />
    <vehicle id="left_260" type="passenger" route="left" depart="46" departLane="3" />
    <vehicle id="left_261" type="passenger" route="left" depart="46" departLane="4" />
    <vehicle id="left_262" type="passenger" route="left" depart="46" departLane="3" />
    <vehicle id="up_263" type="truck" route="up" depart="46" departLane="1" />
    <vehicle id="leftTurn1_264" type="passenger" route="leftTurn1" depart="46" departLane="4" />
    <vehicle id="right_265" type="passenger" route="right" depart="47" departLane="1" />
    <vehicle id="left_266" type="passenger" route="left" depart="47" departLane="4" />
    <vehicle id="left_267" type="passenger" route="left" depart="47" departLane="0" />
    <vehicle id="left_268" type="passenger" route="left" depart="47" departLane="3" />
    <vehicle id="left_269" type="passenger" route="left" depart="47" departLane="1" />
    <vehicle id="up_270" type="passenger" route="up" depart="47" departLane="3" />
    <vehicle id="leftTurn1_271" type="passenger" route="leftTurn1" depart="47" departLane="1" />
    <vehicle id="left_272" type="passenger" route="left" depart="48" departLane="1" />
    <vehicle id="leftTurn2_273" type="passenger" route="leftTurn2" depart="48" departLane="2" />
    <vehicle id="right_274" type="passenger" route="right" depart="49" departLane="1" />
    <vehicle id="right_275" type="passenger" route="right" depart="49" departLane="3" />
    <vehicle id="right_276" type="passenger" route="right" depart="49" departLane="0" />
    <vehicle id="right_277" type="passenger" route="right" depart="49" departLane="2" />
    <vehicle id="left_278" type="passenger" route="left" depart="49" departLane="4" />
    <vehicle id="left_279" type="passenger" route="left" depart="49" departLane="2" />
    <vehicle id="up_280" type="passenger" route="up" depart="49" departLane="0" />
    <vehicle id="emergency_281" type="emergency" route="left" depart="50" departLane="3" />
    <vehicle id="right_282" type="truck" route="right" depart="50" departLane="3" />
    <vehicle id="right_283" type="passenger" route="right" depart="50" departLane="0" />
    <vehicle id="left_284" type="passenger" route="left" depart="50" departLane="0" />
    <vehicle id="left_285" type="passenger" route="left" depart="50" departLane="4" />
    <vehicle id="left_286" type="passenger" route="left" depart="50" departLane="0" />
    <vehicle id="leftTurn2_287" type="passenger" route="leftTurn2" depart="50" departLane="4" />
    <vehicle id="leftTurn2_288" type="passenger" route="leftTurn2" depart="50" departLane="3" />
    <vehicle id="right_289" type="passenger" route="right" depart="51" departLane="0" />
    <vehicle id="right_290" type="passenger" route="right" depart="51" departLane="0" />
    <vehicle id="left_291" type="passenger" route="left" depart="51" departLane="3" />
    <vehicle id="left_292" type="passenger" route="left" depart="51" departLane="3" />
    <vehicle id="up_293" type="truck" route="up" depart="51" departLane="3" />
    <vehicle id="right_294" type="passenger" route="right" depart="52" departLane="4" />
    <vehicle id="left_295" type="passenger" route="left" depart="52" departLane="3" />
    <vehicle id="left_296" type="passenger" route="left" depart="52" departLane="1" />
    <vehicle id="up_297" type="passenger" route="up" depart="52" departLane="1" />
    <vehicle id="leftTurn1_298" type="passenger" route="leftTurn1" depart="52" departLane="4" />
    <vehicle id="right_299" type="truck" route="right" depart="53" departLane="2" />
    <vehicle id="down_300" type="passenger" route="down" depart="53" departLane="4" />
    <vehicle id="up_301" type="passenger" route="up" depart="53" departLane="4" />
    <vehicle id="leftTurn2_302" type="passenger" route="leftTurn2" depart="53" departLane="4" />
    <vehicle id="leftTurn2_303" type="passenger" route="leftTurn2" depart="53" departLane="3" />
    <vehicle id="right_304" type="passenger" route="right" depart="54" departLane="1" />
    <vehicle id="right_305" type="passenger" route="right" depart="54" departLane="4" />
    <vehicle id="left_306" type="passenger" route="left" depart="54" departLane="0" />
    <vehicle id="left_307" type="passenger" route="left" depart="54" departLane="0" />
    <vehicle id="leftTurn2_308" type="truck" route="leftTurn2" depart="54" departLane="3" />
    <vehicle id="right_309" type="passenger" route="right" depart="55" departLane="2" />
    <vehicle id="right_310" type="passenger" route="right" depart="55" departLane="1" />
    <vehicle id="right_311" type="passenger" route="right" depart="55" departLane="3" />
    <vehicle id="right_312" type="passenger" route="right" depart="55" departLane="4" />
    <vehicle id="down_313" type="passenger" route="down" depart="55" departLane="0" />
    <vehicle id="up_314" type="passenger" route="up" depart="55" departLane="3" />
    <vehicle id="up_315" type="passenger" route="up" depart="55" departLane="2" />
    <vehicle id="leftTurn1_316" type="passenger" route="leftTurn1" depart="55" departLane="2" />
    <vehicle id="leftTurn2_317" type="passenger" route="leftTurn2" depart="55" departLane="1" />
    <vehicle id="leftTurn2_318" type="passenger" route="leftTurn2" depart="55" departLane="1" />
    <vehicle id="right_319" type="passenger" route="right" depart="56" departLane="1" />
    <vehicle id="left_320" type="passenger" route="left" depart="56" departLane="3" />
    <vehicle id="left_321" type="passenger" route="left" depart="56" departLane="2" />
    <vehicle id="up_322" type="passenger" route="up" depart="56" departLane="4" />
    <vehicle id="right_323" type="passenger" route="right" depart="57" departLane="2" />
    <vehicle id="left_324" type="passenger" route="left" depart="57" departLane="2" />
    <vehicle id="left_325" type="passenger" route="left" depart="57" departLane="0" />
    <vehicle id="up_326" type="passenger" route="up" depart="57" departLane="2" />