<routes>
        <vType id="passenger" accel="5" decel="10" sigma="0.5" length="5" minGap="2" departSpeed="16.67" maxSpeed="16.67" guiShape="passenger" color="grey"/>
        <vType id="emergency" vClass="emergency" accel="5" decel="10" sigma="0.5" length="7" minGap="2" departSpeed="16.67" maxSpeed="35" color="red"/>
        <vType id="bus" accel="5" decel="10" sigma="0.5" length="12" minGap="2" departSpeed="12" maxSpeed="12" guiShape="bus" color="0,0,255"/>
        <vType id="truck" accel="5" decel="10" sigma="0.5" length="10" minGap="2" departSpeed="10" maxSpeed="10" guiShape="truck" color="0,255,0"/>
        
        <route id="right" edges="3c c4" />
        <route id="left" edges="4c c3" />
        <route id="down" edges="1c c2" />
        <route id="up" edges="2c c1" />
        <route id="leftTurn1" edges="4c c2" />
        <route id="leftTurn2" edges="3c c1" />
        <route id="rightTurn1" edges="2c c4" />
        <route id="rightTurn2" edges="4c c1" />
        <route id="rightTurn3" edges="1c c3" />
        <route id="rightTurn4" edges="3c c2" />
        <route id="uTurn1" edges="1c c1" />
        <route id="uTurn2" edges="2c c2" />
        
    <vehicle id="left_0" type="passenger" route="left" depart="0" departLane="4" />
    <vehicle id="left_1" type="passenger" route="left" depart="0" departLane="3" />
    <vehicle id="leftTurn2_2" type="passenger" route="leftTurn2" depart="0" departLane="1" />
    <vehicle id="up_3" type="passenger" route="up" depart="1" departLane="3" />
    <vehicle id="leftTurn1_4" type="passenger" route="leftTurn1" depart="1" departLane="1" />
    <vehicle id="right_5" type="passenger" route="right" depart="2" departLane="3" />
    <vehicle id="left_6" type="passenger" route="left" depart="2" departLane="1" />
    <vehicle id="up_7" type="passenger" route="up" depart="2" departLane="2" />
    <vehicle id="leftTurn2_8" type="passenger" route="leftTurn2" depart="2" departLane="1" />
    <vehicle id="leftTurn2_9" type="passenger" route="leftTurn2" depart="2" departLane="3" />
    <vehicle id="right_10" type="passenger" route="right" depart="3" departLane="2" />
    <vehicle id="right_11" type="passenger" route="right" depart="3" departLane="2" />
    <vehicle id="right_12" type="passenger" route="right" depart="3" departLane="1" />
    <vehicle id="left_13" type="truck" route="left" depart="3" departLane="1" />
    <vehicle id="left_14" type="passenger" route="left" depart="3" departLane="4" />
    <vehicle id="up_15" type="passenger" route="up" depart="3" departLane="4" />
    <vehicle id="leftTurn1_16" type="passenger" route="leftTurn1" depart="3" departLane="1" />
    <vehicle id="leftTurn2_17" type="passenger" route="leftTurn2" depart="3" departLane="2" />
    <vehicle id="right_18" type="passenger" route="right" depart="4" departLane="1" />
    <vehicle id="right_19" type="passenger" route="right" depart="4" departLane="4" />
    <vehicle id="right_20" type="passenger" route="right" depart="4" departLane="3" />
    <vehicle id="left_21" type="passenger" route="left" depart="4" departLane="4" />
    <vehicle id="up_22" type="passenger" route="up" depart="4" departLane="4" />
    <vehicle id="leftTurn2_23" type="truck" route="leftTurn2" depart="4" departLane="1" />
    <vehicle id="leftTurn2_24" type="passenger" route="leftTurn2" depart="4" departLane="1" />
    <vehicle id="leftTurn2_25" type="passenger" route="leftTurn2" depart="4" departLane="3" />
    <vehicle id="right_26" type="passenger" route="right" depart="5" departLane="4" />
    <vehicle id="right_27" type="passenger" route="right" depart="5" departLane="4" />
    <vehicle id="right_28" type="passenger" route="right" depart="5" departLane="0" />
    <vehicle id="left_29" type="passenger" route="left" depart="5" departLane="4" />
    <vehicle id="left_30" type="passenger" route="left" depart="5" departLane="4" />
    <vehicle id="left_31" type="passenger" route="left" depart="5" departLane="0" />
    <vehicle id="right_32" type="truck" route="right" depart="6" departLane="1" />
    <vehicle id="left_33" type="truck" route="left" depart="6" departLane="3" />
    <vehicle id="left_34" type="passenger" route="left" depart="6" departLane="3" />
    <vehicle id="left_35" type="passenger" route="left" depart="6" departLane="2" />
    <vehicle id="up_36" type="passenger" route="up" depart="6" departLane="4" />
    <vehicle id="leftTurn1_37" type="passenger" route="leftTurn1" depart="6" departLane="0" />
    <vehicle id="leftTurn2_38" type="passenger" route="leftTurn2" depart="6" departLane="2" />
    <vehicle id="right_39" type="passenger" route="right" depart="7" departLane="1" />
    <vehicle id="left_40" type="passenger" route="left" depart="7" departLane="3" />
    <vehicle id="down_41" type="passenger" route="down" depart="7" departLane="2" />
    <vehicle id="left_42" type="passenger" route="left" depart="8" departLane="0" />
    <vehicle id="down_43" type="passenger" route="down" depart="8" departLane="0" />
    <vehicle id="down_44" type="passenger" route="down" depart="8" departLane="2" />
    <vehicle id="leftTurn1_45" type="passenger" route="leftTurn1" depart="8" departLane="2" />
    <vehicle id="leftTurn1_46" type="passenger" route="leftTurn1" depart="8" departLane="4" />
    <vehicle id="right_47" type="passenger" route="right" depart="9" departLane="3" />
    <vehicle id="right_48" type="passenger" route="right" depart="9" departLane="1" />
    <vehicle id="right_49" type="passenger" route="right" depart="9" departLane="2" />
    <vehicle id="left_50" type="passenger" route="left" depart="9" departLane="4" />
    <vehicle id="left_51" type="passenger" route="left" depart="9" departLane="1" />
    <vehicle id="up_52" type="passenger" route="up" depart="9" departLane="3" />
    <vehicle id="up_53" type="passenger" route="up" depart="9" departLane="1" />
    <vehicle id="leftTurn1_54" type="passenger" route="leftTurn1" depart="9" departLane="4" />
    <vehicle id="leftTurn2_55" type="passenger" route="leftTurn2" depart="9" departLane="3" />
    <vehicle id="right_56" type="passenger" route="right" depart="10" departLane="1" />
    <vehicle id="right_57" type="truck" route="right" depart="10" departLane="0" />
    <vehicle id="left_58" type="passenger" route="left" depart="10" departLane="3" />
    <vehicle id="left_59" type="passenger" route="left" depart="10" departLane="0" />
    <vehicle id="up_60" type="passenger" route="up" depart="10" departLane="0" />
    <vehicle id="right_61" type="passenger" route="right" depart="11" departLane="0" />
    <vehicle id="left_62" type="passenger" route="left" depart="11" departLane="4" />
    <vehicle id="up_63" type="passenger" route="up" depart="11" departLane="3" />
    <vehicle id="right_64" type="passenger" route="right" depart="12" departLane="3" />
    <vehicle id="left_65" type="passenger" route="left" depart="12" departLane="3" />
    <vehicle id="left_66" type="passenger" route="left" depart="12" departLane="2" />
    <vehicle id="left_67" type="passenger" route="left" depart="12" departLane="3" />
    <vehicle id="leftTurn1_68" type="passenger" route="leftTurn1" depart="12" departLane="4" />
    <vehicle id="right_69" type="passenger" route="right" depart="13" departLane="1" />
    <vehicle id="right_70" type="passenger" route="right" depart="13" departLane="2" />
    <vehicle id="left_71" type="passenger" route="left" depart="13" departLane="1" />
    <vehicle id="up_72" type="passenger" route="up" depart="13" departLane="4" />
    <vehicle id="leftTurn2_73" type="passenger" route="leftTurn2" depart="13" departLane="3" />
    <vehicle id="leftTurn2_74" type="passenger" route="leftTurn2" depart="13" departLane="0" />
    <vehicle id="leftTurn2_75" type="passenger" route="leftTurn2" depart="13" departLane="3" />
    <vehicle id="right_76" type="passenger" route="right" depart="14" departLane="1" />
    <vehicle id="right_77" type="passenger" route="right" depart="14" departLane="0" />
    <vehicle id="left_78" type="passenger" route="left" depart="14" departLane="4" />
    <vehicle id="left_79" type="truck" route="left" depart="14" departLane="0" />
    <vehicle id="right_80" type="passenger" route="right" depart="15" departLane="2" />
    <vehicle id="right_81" type="passenger" route="right" depart="15" departLane="3" />
    <vehicle id="right_82" type="passenger" route="right" depart="15" departLane="4" />
    <vehicle id="down_83" type="passenger" route="down" depart="15" departLane="1" />
    <vehicle id="up_84" type="passenger" route="up" depart="15" departLane="1" />
    <vehicle id="up_85" type="passenger" route="up" depart="15" departLane="1" />
    <vehicle id="right_86" type="passenger" route="right" depart="16" departLane="0" />
    <vehicle id="left_87" type="passenger" route="left" depart="16" departLane="2" />
    <vehicle id="left_88" type="passenger" route="left" depart="16" departLane="3" />
    <vehicle id="right_89" type="passenger" route="right" depart="17" departLane="4" />
    <vehicle id="left_90" type="passenger" route="left" depart="17" departLane="3" />
    <vehicle id="left_91" type="passenger" route="left" depart="17" departLane="4" />
    <vehicle id="up_92" type="passenger" route="up" depart="17" departLane="4" />
    <vehicle id="right_93" type="passenger" route="right" depart="18" departLane="0" />
    <vehicle id="left_94" type="passenger" route="left" depart="18" departLane="4" />
    <vehicle id="left_95" type="passenger" route="left" depart="18" departLane="3" />
    <vehicle id="leftTurn2_96" type="passenger" route="leftTurn2" depart="18" departLane="1" />
    <vehicle id="right_97" type="passenger" route="right" depart="19" departLane="3" />
    <vehicle id="left_98" type="passenger" route="left" depart="19" departLane="0" />
    <vehicle id="left_99" type="passenger" route="left" depart="19" departLane="2" />
    <vehicle id="left_100" type="passenger" route="left" depart="19" departLane="1" />
    <vehicle id="up_101" type="passenger" route="up" depart="19" departLane="2" />
    <vehicle id="up_102" type="passenger" route="up" depart="19" departLane="2" />
    <vehicle id="right_103" type="passenger" route="right" depart="20" departLane="4" />
    <vehicle id="right_104" type="passenger" route="right" depart="20" departLane="3" />
    <vehicle id="left_105" type="passenger" route="left" depart="20" departLane="2" />
    <vehicle id="left_106" type="passenger" route="left" depart="20" departLane="2" />
    <vehicle id="left_107" type="passenger" route="left" depart="20" departLane="3" />
    <vehicle id="right_108" type="passenger" route="right" depart="21" departLane="4" />
    <vehicle id="right_109" type="passenger" route="right" depart="21" departLane="4" />
    <vehicle id="left_110" type="passenger" route="left" depart="21" departLane="3" />
    <vehicle id="left_111" type="truck" route="left" depart="21" departLane="1" />
    <vehicle id="leftTurn1_112" type="passenger" route="leftTurn1" depart="21" departLane="3" />
    <vehicle id="leftTurn1_113" type="passenger" route="leftTurn1" depart="21" departLane="0" />
    <vehicle id="leftTurn2_114" type="passenger" route="leftTurn2" depart="21" departLane="2" />
    <vehicle id="right_115" type="passenger" route="right" depart="22" departLane="2" />
    <vehicle id="down_116" type="passenger" route="down" depart="22" departLane="0" />
    <vehicle id="right_117" type="passenger" route="right" depart="23" departLane="4" />
    <vehicle id="left_118" type="passenger" route="left" depart="23" departLane="4" />
    <vehicle id="left_119" type="passenger" route="left" depart="23" departLane="1" />
    <vehicle id="leftTurn1_120" type="passenger" route="leftTurn1" depart="23" departLane="4" />
    <vehicle id="leftTurn2_121" type="passenger" route="leftTurn2" depart="23" departLane="0" />
    <vehicle id="right_122" type="truck" route="right" depart="24" departLane="0" />
    <vehicle id="right_123" type="passenger" route="right" depart="24" departLane="1" />
    <vehicle id="right_124" type="passenger" route="right" depart="24" departLane="3" />
    <vehicle id="left_125" type="passenger" route="left" depart="24" departLane="4" />
    <vehicle id="down_126" type="passenger" route="down" depart="24" departLane="1" />
    <vehicle id="leftTurn2_127" type="passenger" route="leftTurn2" depart="24" departLane="4" />
    <vehicle id="leftTurn2_128" type="passenger" route="leftTurn2" depart="24" departLane="4" />
    <vehicle id="right_129" type="passenger" route="right" depart="25" departLane="2" />
    <vehicle id="left_130" type="passenger" route="left" depart="25" departLane="4" />
    <vehicle id="left_131" type="passenger" route="left" depart="25" departLane="4" />
    <vehicle id="right_132" type="passenger" route="right" depart="26" departLane="3" />
    <vehicle id="right_133" type="passenger" route="right" depart="26" departLane="1" />
    <vehicle id="left_134" type="passenger" route="left" depart="26" departLane="0" />
    <vehicle id="left_135" type="truck" route="left" depart="26" departLane="2" />
    <vehicle id="left_136" type="passenger" route="left" depart="26" departLane="0" />
    <vehicle id="left_137" type="passenger" route="left" depart="27" departLane="4" />
    <vehicle id="down_138" type="passenger" route="down" depart="27" departLane="2" />
    <vehicle id="right_139" type="passenger" route="right" depart="28" departLane="3" />
    <vehicle id="left_140" type="passenger" route="left" depart="28" departLane="2" />
    <vehicle id="leftTurn1_141" type="passenger" route="leftTurn1" depart="28" departLane="3" />
    <vehicle id="right_142" type="passenger" route="right" depart="29" departLane="4" />
    <vehicle id="right_143" type="truck" route="right" depart="29" departLane="3" />
    <vehicle id="left_144" type="passenger" route="left" depart="29" departLane="1" />
    <vehicle id="left_145" type="passenger" route="left" depart="29" departLane="3" />
    <vehicle id="left_146" type="truck" route="left" depart="29" departLane="2" />
    <vehicle id="left_147" type="passenger" route="left" depart="29" departLane="4" />
    <vehicle id="up_148" type="passenger" route="up" depart="29" departLane="1" />
    <vehicle id="up_149" type="passenger" route="up" depart="29" departLane="1" />
    <vehicle id="leftTurn1_150" type="passenger" route="leftTurn1" depart="29" departLane="1" />
    <vehicle id="left_151" type="passenger" route="left" depart="30" departLane="1" />
    <vehicle id="left_152" type="passenger" route="left" depart="30" departLane="2" />
    <vehicle id="up_153" type="passenger" route="up" depart="30" departLane="0" />
    <vehicle id="leftTurn2_154" type="passenger" route="leftTurn2" depart="30" departLane="1" />
    <vehicle id="left_155" type="passenger" route="left" depart="31" departLane="1" />
    <vehicle id="left_156" type="passenger" route="left" depart="31" departLane="1" />
    <vehicle id="up_157" type="passenger" route="up" depart="31" departLane="4" />
    <vehicle id="up_158" type="passenger" route="up" depart="31" departLane="1" />
    <vehicle id="up_159" type="passenger" route="up" depart="31" departLane="0" />
    <vehicle id="up_160" type="passenger" route="up" depart="31" departLane="3" />
    <vehicle id="leftTurn1_161" type="passenger" route="leftTurn1" depart="31" departLane="1" />
    <vehicle id="right_162" type="passenger" route="right" depart="32" departLane="1" />
    <vehicle id="right_163" type="truck" route="right" depart="32" departLane="3" />
    <vehicle id="right_164" type="passenger" route="right" depart="32" departLane="2" />
    <vehicle id="right_165" type="passenger" route="right" depart="32" departLane="1" />
    <vehicle id="right_166" type="passenger" route="right" depart="32" departLane="1" />
    <vehicle id="left_167" type="passenger" route="left" depart="32" departLane="3" />
    <vehicle id="left_168" type="truck" route="left" depart="32" departLane="3" />
    <vehicle id="leftTurn2_169" type="passenger" route="leftTurn2" depart="32" departLane="3" />
    <vehicle id="leftTurn2_170" type="passenger" route="leftTurn2" depart="32" departLane="0" />
    <vehicle id="leftTurn2_171" type="passenger" route="leftTurn2" depart="32" departLane="3" />
    <vehicle id="right_172" type="passenger" route="right" depart="33" departLane="2" />
    <vehicle id="left_173" type="passenger" route="left" depart="33" departLane="4" />
    <vehicle id="left_174" type="passenger" route="left" depart="33" departLane="0" />
    <vehicle id="left_175" type="passenger" route="left" depart="33" departLane="4" />
    <vehicle id="up_176" type="passenger" route="up" depart="33" departLane="4" />
    <vehicle id="up_177" type="passenger" route="up" depart="33" departLane="2" />
    <vehicle id="leftTurn1_178" type="truck" route="leftTurn1" depart="33" departLane="1" />
    <vehicle id="leftTurn2_179" type="passenger" route="leftTurn2" depart="33" departLane="3" />
    <vehicle id="left_180" type="passenger" route="left" depart="34" departLane="0" />
    <vehicle id="left_181" type="passenger" route="left" depart="34" departLane="3" />
    <vehicle id="left_182" type="passenger" route="left" depart="34" departLane="3" />
    <vehicle id="left_183" type="passenger" route="left" depart="34" departLane="2" />
    <vehicle id="leftTurn1_184" type="passenger" route="leftTurn1" depart="34" departLane="1" />
    <vehicle id="leftTurn2_185" type="passenger" route="leftTurn2" depart="34" departLane="4" />
    <vehicle id="right_186" type="passenger" route="right" depart="35" departLane="0" />
    <vehicle id="left_187" type="passenger" route="left" depart="35" departLane="0" />
    <vehicle id="left_188" type="passenger" route="left" depart="35" departLane="3" />
    <vehicle id="left_189" type="passenger" route="left" depart="35" departLane="1" />
    <vehicle id="left_190" type="passenger" route="left" depart="35" departLane="2" />
    <vehicle id="right_191" type="truck" route="right" depart="36" departLane="3" />
    <vehicle id="right_192" type="passenger" route="right" depart="36" departLane="1" />
    <vehicle id="left_193" type="passenger" route="left" depart="36" departLane="1" />
    <vehicle id="left_194" type="passenger" route="left" depart="36" departLane="1" />
    <vehicle id="up_195" type="passenger" route="up" depart="36" departLane="1" />
    <vehicle id="leftTurn1_196" type="passenger" route="leftTurn1" depart="36" departLane="4" />
    <vehicle id="leftTurn2_197" type="passenger" route="leftTurn2" depart="36" departLane="3" />
    <vehicle id="leftTurn2_198" type="passenger" route="leftTurn2" depart="36" departLane="0" />
    <vehicle id="right_199" type="passenger" route="right" depart="37" departLane="0" />
    <vehicle id="right_200" type="passenger" route="right" depart="37" departLane="0" />
    <vehicle id="right_201" type="passenger" route="right" depart="37" departLane="1" />
    <vehicle id="right_202" type="passenger" route="right" depart="37" departLane="3" />
    <vehicle id="right_203" type="passenger" route="right" depart="37" departLane="3" />
    <vehicle id="left_204" type="passenger" route="left" depart="37" departLane="1" />
    <vehicle id="down_205" type="passenger" route="down" depart="37" departLane="0" />
    <vehicle id="leftTurn1_206" type="passenger" route="leftTurn1" depart="37" departLane="0" />
    <vehicle id="leftTurn2_207" type="passenger" route="leftTurn2" depart="37" departLane="4" />
    <vehicle id="leftTurn2_208" type="passenger" route="leftTurn2" depart="37" departLane="2" />
    <vehicle id="rightTurn3_209" type="passenger" route="rightTurn3" depart="37" departLane="3" />
    <vehicle id="right_210" type="truck" route="right" depart="38" departLane="3" />
    <vehicle id="right_211" type="passenger" route="right" depart="38" departLane="2" />
    <vehicle id="left_212" type="passenger" route="left" depart="38" departLane="1" />
    <vehicle id="down_213" type="passenger" route="down" depart="38" departLane="1" />
    <vehicle id="right_214" type="passenger" route="right" depart="39" departLane="0" />
    <vehicle id="right_215" type="passenger" route="right" depart="39" departLane="0" />
    <vehicle id="up_216" type="passenger" route="up" depart="39" departLane="2" />
    <vehicle id="leftTurn1_217" type="passenger" route="leftTurn1" depart="39" departLane="0" />
    <vehicle id="leftTurn2_218" type="passenger" route="leftTurn2" depart="39" departLane="2" />
    <vehicle id="right_219" type="passenger" route="right" depart="40" departLane="2" />
    <vehicle id="right_220" type="passenger" route="right" depart="40" departLane="4" />
    <vehicle id="left_221" type="passenger" route="left" depart="40" departLane="4" />
    <vehicle id="left_222" type="passenger" route="left" depart="40" departLane="4" />
    <vehicle id="leftTurn2_223" type="passenger" route="leftTurn2" depart="40" departLane="0" />
    <vehicle id="left_224" type="passenger" route="left" depart="41" departLane="4" />
    <vehicle id="left_225" type="passenger" route="left" depart="41" departLane="1" />
    <vehicle id="up_226" type="passenger" route="up" depart="41" departLane="1" />
    <vehicle id="right_227" type="passenger" route="right" depart="42" departLane="3" />
    <vehicle id="left_228" type="passenger" route="left" depart="42" departLane="0" />
    <vehicle id="left_229" type="passenger" route="left" depart="42" departLane="0" />
    <vehicle id="left_230" type="passenger" route="left" depart="42" departLane="3" />
    <vehicle id="left_231" type="passenger" route="left" depart="42" departLane="1" />
    <vehicle id="down_232" type="passenger" route="down" depart="42" departLane="1" />
    <vehicle id="rightTurn4_233" type="passenger" route="rightTurn4" depart="42" departLane="4" />
    <vehicle id="right_234" type="passenger" route="right" depart="43" departLane="1" />
    <vehicle id="left_235" type="passenger" route="left" depart="43" departLane="3" />
    <vehicle id="left_236" type="passenger" route="left" depart="43" departLane="3" />
    <vehicle id="left_237" type="passenger" route="left" depart="43" departLane="1" />
    <vehicle id="left_238" type="truck" route="left" depart="43" departLane="2" />
    <vehicle id="leftTurn1_239" type="passenger" route="leftTurn1" depart="43" departLane="3" />
    <vehicle id="leftTurn2_240" type="passenger" route="leftTurn2" depart="43" departLane="4" />
    <vehicle id="right_241" type="passenger" route="right" depart="44" departLane="4" />
    <vehicle id="left_242" type="passenger" route="left" depart="44" departLane="2" />
    <vehicle id="left_243" type="passenger" route="left" depart="44" departLane="2" />
    <vehicle id="down_244" type="passenger" route="down" depart="44" departLane="3" />
    <vehicle id="up_245" type="passenger" route="up" depart="44" departLane="2" />
    <vehicle id="up_246" type="passenger" route="up" depart="44" departLane="4" />
    <vehicle id="leftTurn2_247" type="passenger" route="leftTurn2" depart="44" departLane="4" />
    <vehicle id="leftTurn2_248" type="passenger" route="leftTurn2" depart="44" departLane="0" />
    <vehicle id="right_249" type="passenger" route="right" depart="45" departLane="0" />
    <vehicle id="left_250" type="passenger" route="left" depart="45" departLane="0" />
    <vehicle id="left_251" type="passenger" route="left" depart="45" departLane="3" />
    <vehicle id="up_252" type="passenger" route="up" depart="45" departLane="3" />
    <vehicle id="leftTurn1_253" type="passenger" route="leftTurn1" depart="45" departLane="0" />
    <vehicle id="leftTurn1_254" type="passenger" route="leftTurn1" depart="45" departLane="2" />
    <vehicle id="leftTurn2_255" type="passenger" route="leftTurn2" depart="45" departLane="3" />
    <vehicle id="right_256" type="passenger" route="right" depart="46" departLane="1" />
    <vehicle id="right_257" type="passenger" route="right" depart="46" departLane="3" />
    <vehicle id="left_258" type="passenger" route="left" depart="46" departLane="4" />
    <vehicle id="left_259" type="passenger" route="left" depart="46" departLane="1" />
    <vehicle id="left_260" type="passenger" route="left" depart="46" departLane="3" />
    <vehicle id="up_261" type="passenger" route="up" depart="46" departLane="4" />
    <vehicle id="up_262" type="passenger" route="up" depart="46" departLane="3" />
    <vehicle id="right_263" type="truck" route="right" depart="47" departLane="1" />
    <vehicle id="right_264" type="passenger" route="right" depart="47" departLane="4" />
    <vehicle id="left_265" type="passenger" route="left" depart="47" departLane="1" />
    <vehicle id="up_266" type="passenger" route="up" depart="47" departLane="4" />
    <vehicle id="leftTurn1_267" type="passenger" route="leftTurn1" depart="47" departLane="0" />
    <vehicle id="leftTurn2_268" type="passenger" route="leftTurn2" depart="47" departLane="3" />
    <vehicle id="right_269" type="truck" route="right" depart="48" departLane="1" />
    <vehicle id="left_270" type="passenger" route="left" depart="48" departLane="3" />
    <vehicle id="left_271" type="passenger" route="left" depart="48" departLane="1" />
    <vehicle id="up_272" type="passenger" route="up" depart="48" departLane="1" />
    <vehicle id="up_273" type="passenger" route="up" depart="48" departLane="2" />
    <vehicle id="left_274" type="passenger" route="left" depart="49" departLane="1" />
    <vehicle id="left_275" type="passenger" route="left" depart="49" departLane="3" />
    <vehicle id="up_276" type="passenger" route="up" depart="49" departLane="0" />
    <vehicle id="emergency_277" type="emergency" route="left" depart="50" departLane="2" />
    <vehicle id="leftTurn1_278" type="passenger" route="leftTurn1" depart="50" departLane="4" />
    <vehicle id="leftTurn2_279" type="passenger" route="leftTurn2" depart="50" departLane="4" />
    <vehicle id="right_280" type="passenger" route="right" depart="51" departLane="2" />
    <vehicle id="left_281" type="passenger" route="left" depart="51" departLane="0" />
    <vehicle id="left_282" type="passenger" route="left" depart="51" departLane="3" />
    <vehicle id="down_283" type="passenger" route="down" depart="51" departLane="0" />
    <vehicle id="up_284" type="passenger" route="up" depart="51" departLane="1" />
    <vehicle id="up_285" type="passenger" route="up" depart="51" departLane="0" />
    <vehicle id="leftTurn1_286" type="passenger" route="leftTurn1" depart="51" departLane="4" />
    <vehicle id="right_287" type="passenger" route="right" depart="52" departLane="0" />
    <vehicle id="right_288" type="passenger" route="right" depart="52" departLane="4" />
    <vehicle id="left_289" type="passenger" route="left" depart="52" departLane="3" />
    <vehicle id="up_290" type="passenger" route="up" depart="52" departLane="0" />
    <vehicle id="up_291" type="passenger" route="up" depart="52" departLane="0" />
    <vehicle id="up_292" type="passenger" route="up" depart="52" departLane="3" />
    <vehicle id="up_293" type="passenger" route="up" depart="52" departLane="3" />
    <vehicle id="leftTurn1_294" type="truck" route="leftTurn1" depart="52" departLane="3" />
    <vehicle id="right_295" type="passenger" route="right" depart="53" departLane="4" />
    <vehicle id="left_296" type="passenger" route="left" depart="53" departLane="3" />
    <vehicle id="leftTurn1_297" type="passenger" route="leftTurn1" depart="53" departLane="1" />
    <vehicle id="leftTurn1_298" type="passenger" route="leftTurn1" depart="53" departLane="1" />
    <vehicle id="leftTurn2_299" type="passenger" route="leftTurn2" depart="53" departLane="4" />
    <vehicle id="right_300" type="truck" route="right" depart="54" departLane="2" />
    <vehicle id="right_301" type="passenger" route="right" depart="54" departLane="4" />
    <vehicle id="up_302" type="passenger" route="up" depart="54" departLane="4" />
    <vehicle id="up_303" type="passenger" route="up" depart="54" departLane="4" />
    <vehicle id="leftTurn1_304" type="passenger" route="leftTurn1" depart="55" departLane="3" />
    <vehicle id="leftTurn2_305" type="passenger" route="leftTurn2" depart="55" departLane="1" />
    <vehicle id="right_306" type="passenger" route="right" depart="56" departLane="4" />
    <vehicle id="left_307" type="passenger" route="left" depart="56" departLane="0" />
    <vehicle id="left_308" type="passenger" route="left" depart="56" departLane="0" />
    <vehicle id="left_309" type="truck" route="left" depart="56" departLane="3" />
    <vehicle id="right_310" type="passenger" route="right" depart="57" departLane="2" />
    <vehicle id="left_311" type="passenger" route="left" depart="57" departLane="1" />
    <vehicle id="left_312" type="passenger" route="left" depart="57" departLane="3" />
    <vehicle id="leftTurn2_313" type="passenger" route="leftTurn2" depart="57" departLane="4" />
    <vehicle id="right_314" type="passenger" route="right" depart="58" departLane="0" />
    <vehicle id="right_315" type="passenger" route="right" depart="59" departLane="3" />
    <vehicle id="left_316" type="passenger" route="left" depart="59" departLane="2" />
    <vehicle id="left_317" type="passenger" route="left" depart="59" departLane="2" />
    <vehicle id="left_318" type="passenger" route="left" depart="59" departLane="1" />
    <vehicle id="left_319" type="passenger" route="left" depart="59" departLane="1" />
    <vehicle id="down_320" type="passenger" route="down" depart="59" departLane="1" />
    <vehicle id="up_321" type="passenger" route="up" depart="59" departLane="3" />
    <vehicle id="right_322" type="passenger" route="right" depart="60" departLane="2" />
    <vehicle id="right_323" type="passenger" route="right" depart="60" departLane="4" />
    <vehicle id="left_324" type="passenger" route="left" depart="60" departLane="2" />
    <vehicle id="up_325" type="passenger" route="up" depart="60" departLane="2" />