<routes>
        <vType id="passenger" accel="5" decel="10" sigma="0.5" length="5" minGap="2" departSpeed="16.67" maxSpeed="16.67" guiShape="passenger" color="grey"/>
        <vType id="emergency" vClass="emergency" accel="5" decel="10" sigma="0.5" length="7" minGap="2" departSpeed="16.67" maxSpeed="35" color="red"/>
        <vType id="bus" accel="5" decel="10" sigma="0.5" length="12" minGap="2" departSpeed="12" maxSpeed="12" guiShape="bus" color="0,0,255"/>
        <vType id="truck" accel="5" decel="10" sigma="0.5" length="10" minGap="2" departSpeed="10" maxSpeed="10" guiShape="truck" color="0,255,0"/>
        
        <route id="right" edges="3c c4" />
        <route id="left" edges="4c c3" />
        <route id="down" edges="1c c2" />
        <route id="up" edges="2c c1" />
        <route id="leftTurn1" edges="4c c2" />
        <route id="leftTurn2" edges="3c c1" />
        <route id="rightTurn1" edges="2c c4" />
        <route id="rightTurn2" edges="4c c1" />
        <route id="rightTurn3" edges="1c c3" />
        <route id="rightTurn4" edges="3c c2" />
        <route id="uTurn1" edges="1c c1" />
        <route id="uTurn2" edges="2c c2" />
        
    <vehicle id="right_0" type="passenger" route="right" depart="0" departLane="4" />
    <vehicle id="right_1" type="passenger" route="right" depart="0" departLane="3" />
    <vehicle id="left_2" type="passenger" route="left" depart="0" departLane="1" />
    <vehicle id="left_3" type="passenger" route="left" depart="0" departLane="3" />
    <vehicle id="left_4" type="passenger" route="left" depart="0" departLane="1" />
    <vehicle id="left_5" type="passenger" route="left" depart="0" departLane="3" />
    <vehicle id="leftTurn1_6" type="truck" route="leftTurn1" depart="0" departLane="1" />
    <vehicle id="right_7" type="passenger" route="right" depart="1" departLane="2" />
    <vehicle id="left_8" type="passenger" route="left" depart="1" departLane="1" />
    <vehicle id="left_9" type="passenger" route="left" depart="1" departLane="3" />
    <vehicle id="down_10" type="passenger" route="down" depart="1" departLane="2" />
    <vehicle id="up_11" type="passenger" route="up" depart="1" departLane="2" />
    <vehicle id="leftTurn2_12" type="passenger" route="leftTurn2" depart="1" departLane="1" />
    <vehicle id="right_13" type="truck" route="right" depart="2" departLane="1" />
    <vehicle id="right_14" type="passenger" route="right" depart="2" departLane="4" />
    <vehicle id="left_15" type="passenger" route="left" depart="2" departLane="4" />
    <vehicle id="left_16" type="passenger" route="left" depart="2" departLane="1" />
    <vehicle id="left_17" type="passenger" route="left" depart="2" departLane="2" />
    <vehicle id="left_18" type="passenger" route="left" depart="2" departLane="1" />
    <vehicle id="leftTurn2_19" type="passenger" route="leftTurn2" depart="2" departLane="4" />
    <vehicle id="left_20" type="passenger" route="left" depart="3" departLane="3" />
    <vehicle id="down_21" type="passenger" route="down" depart="3" departLane="4" />
    <vehicle id="up_22" type="passenger" route="up" depart="3" departLane="4" />
    <vehicle id="up_23" type="passenger" route="up" depart="3" departLane="1" />
    <vehicle id="leftTurn2_24" type="passenger" route="leftTurn2" depart="3" departLane="1" />
    <vehicle id="right_25" type="passenger" route="right" depart="4" departLane="3" />
    <vehicle id="right_26" type="passenger" route="right" depart="4" departLane="4" />
    <vehicle id="left_27" type="passenger" route="left" depart="4" departLane="4" />
    <vehicle id="left_28" type="passenger" route="left" depart="4" departLane="0" />
    <vehicle id="right_29" type="truck" route="right" depart="5" departLane="4" />
    <vehicle id="right_30" type="passenger" route="right" depart="5" departLane="4" />
    <vehicle id="right_31" type="passenger" route="right" depart="5" departLane="0" />
    <vehicle id="left_32" type="passenger" route="left" depart="5" departLane="1" />
    <vehicle id="left_33" type="truck" route="left" depart="5" departLane="3" />
    <vehicle id="left_34" type="passenger" route="left" depart="5" departLane="3" />
    <vehicle id="down_35" type="passenger" route="down" depart="5" departLane="2" />
    <vehicle id="up_36" type="passenger" route="up" depart="5" departLane="4" />
    <vehicle id="leftTurn1_37" type="passenger" route="leftTurn1" depart="5" departLane="0" />
    <vehicle id="leftTurn1_38" type="passenger" route="leftTurn1" depart="5" departLane="2" />
    <vehicle id="right_39" type="passenger" route="right" depart="6" departLane="1" />
    <vehicle id="right_40" type="passenger" route="right" depart="6" departLane="3" />
    <vehicle id="right_41" type="passenger" route="right" depart="6" departLane="2" />
    <vehicle id="left_42" type="passenger" route="left" depart="6" departLane="0" />
    <vehicle id="left_43" type="passenger" route="left" depart="6" departLane="0" />
    <vehicle id="left_44" type="passenger" route="left" depart="6" departLane="2" />
    <vehicle id="leftTurn2_45" type="passenger" route="leftTurn2" depart="6" departLane="2" />
    <vehicle id="right_46" type="passenger" route="right" depart="7" departLane="4" />
    <vehicle id="right_47" type="passenger" route="right" depart="7" departLane="3" />
    <vehicle id="left_48" type="passenger" route="left" depart="7" departLane="1" />
    <vehicle id="left_49" type="passenger" route="left" depart="7" departLane="2" />
    <vehicle id="left_50" type="passenger" route="left" depart="7" departLane="4" />
    <vehicle id="up_51" type="passenger" route="up" depart="7" departLane="1" />
    <vehicle id="up_52" type="passenger" route="up" depart="7" departLane="3" />
    <vehicle id="left_53" type="passenger" route="left" depart="8" departLane="1" />
    <vehicle id="left_54" type="passenger" route="left" depart="8" departLane="4" />
    <vehicle id="left_55" type="passenger" route="left" depart="8" departLane="3" />
    <vehicle id="down_56" type="passenger" route="down" depart="8" departLane="1" />
    <vehicle id="up_57" type="passenger" route="up" depart="8" departLane="0" />
    <vehicle id="up_58" type="passenger" route="up" depart="8" departLane="3" />
    <vehicle id="leftTurn2_59" type="passenger" route="leftTurn2" depart="8" departLane="0" />
    <vehicle id="right_60" type="passenger" route="right" depart="9" departLane="0" />
    <vehicle id="right_61" type="passenger" route="right" depart="9" departLane="0" />
    <vehicle id="left_62" type="passenger" route="left" depart="9" departLane="4" />
    <vehicle id="left_63" type="passenger" route="left" depart="9" departLane="3" />
    <vehicle id="left_64" type="passenger" route="left" depart="9" departLane="3" />
    <vehicle id="right_65" type="passenger" route="right" depart="10" departLane="3" />
    <vehicle id="left_66" type="passenger" route="left" depart="10" departLane="2" />
    <vehicle id="leftTurn2_67" type="passenger" route="leftTurn2" depart="10" departLane="3" />
    <vehicle id="right_68" type="passenger" route="right" depart="11" departLane="4" />
    <vehicle id="left_69" type="passenger" route="left" depart="11" departLane="1" />
    <vehicle id="left_70" type="passenger" route="left" depart="11" departLane="2" />
    <vehicle id="left_71" type="passenger" route="left" depart="11" departLane="1" />
    <vehicle id="leftTurn1_72" type="passenger" route="leftTurn1" depart="11" departLane="4" />
    <vehicle id="leftTurn2_73" type="passenger" route="leftTurn2" depart="11" departLane="3" />
    <vehicle id="right_74" type="truck" route="right" depart="12" departLane="0" />
    <vehicle id="left_75" type="passenger" route="left" depart="12" departLane="3" />
    <vehicle id="leftTurn1_76" type="passenger" route="leftTurn1" depart="12" departLane="1" />
    <vehicle id="leftTurn2_77" type="passenger" route="leftTurn2" depart="12" departLane="0" />
    <vehicle id="right_78" type="passenger" route="right" depart="13" departLane="4" />
    <vehicle id="right_79" type="truck" route="right" depart="13" departLane="0" />
    <vehicle id="left_80" type="passenger" route="left" depart="13" departLane="2" />
    <vehicle id="left_81" type="passenger" route="left" depart="13" departLane="3" />
    <vehicle id="up_82" type="passenger" route="up" depart="13" departLane="4" />
    <vehicle id="leftTurn1_83" type="truck" route="leftTurn1" depart="13" departLane="1" />
    <vehicle id="leftTurn1_84" type="passenger" route="leftTurn1" depart="13" departLane="1" />
    <vehicle id="leftTurn2_85" type="passenger" route="leftTurn2" depart="13" departLane="1" />
    <vehicle id="right_86" type="passenger" route="right" depart="14" departLane="0" />
    <vehicle id="leftTurn1_87" type="passenger" route="leftTurn1" depart="14" departLane="2" />
    <vehicle id="leftTurn1_88" type="passenger" route="leftTurn1" depart="14" departLane="3" />
    <vehicle id="leftTurn2_89" type="passenger" route="leftTurn2" depart="14" departLane="4" />
    <vehicle id="right_90" type="passenger" route="right" depart="15" departLane="3" />
    <vehicle id="right_91" type="passenger" route="right" depart="15" departLane="4" />
    <vehicle id="left_92" type="passenger" route="left" depart="15" departLane="4" />
    <vehicle id="down_93" type="passenger" route="down" depart="15" departLane="0" />
    <vehicle id="up_94" type="passenger" route="up" depart="15" departLane="4" />
    <vehicle id="up_95" type="passenger" route="up" depart="15" departLane="3" />
    <vehicle id="up_96" type="passenger" route="up" depart="16" departLane="1" />
    <vehicle id="right_97" type="passenger" route="right" depart="17" departLane="3" />
    <vehicle id="right_98" type="passenger" route="right" depart="17" departLane="0" />
    <vehicle id="left_99" type="passenger" route="left" depart="17" departLane="2" />
    <vehicle id="up_100" type="passenger" route="up" depart="17" departLane="1" />
    <vehicle id="up_101" type="passenger" route="up" depart="17" departLane="2" />
    <vehicle id="right_102" type="passenger" route="right" depart="18" departLane="2" />
    <vehicle id="left_103" type="passenger" route="left" depart="18" departLane="4" />
    <vehicle id="up_104" type="passenger" route="up" depart="18" departLane="3" />
    <vehicle id="left_105" type="passenger" route="left" depart="19" departLane="2" />
    <vehicle id="down_106" type="passenger" route="down" depart="19" departLane="2" />
    <vehicle id="up_107" type="passenger" route="up" depart="19" departLane="3" />
    <vehicle id="up_108" type="passenger" route="up" depart="19" departLane="4" />
    <vehicle id="up_109" type="passenger" route="up" depart="19" departLane="4" />
    <vehicle id="up_110" type="passenger" route="up" depart="19" departLane="3" />
    <vehicle id="leftTurn1_111" type="truck" route="leftTurn1" depart="19" departLane="1" />
    <vehicle id="right_112" type="passenger" route="right" depart="20" departLane="3" />
    <vehicle id="right_113" type="passenger" route="right" depart="20" departLane="0" />
    <vehicle id="left_114" type="passenger" route="left" depart="20" departLane="2" />
    <vehicle id="left_115" type="passenger" route="left" depart="20" departLane="2" />
    <vehicle id="left_116" type="passenger" route="left" depart="20" departLane="0" />
    <vehicle id="leftTurn1_117" type="passenger" route="leftTurn1" depart="20" departLane="4" />
    <vehicle id="right_118" type="passenger" route="right" depart="21" departLane="4" />
    <vehicle id="right_119" type="passenger" route="right" depart="21" departLane="1" />
    <vehicle id="right_120" type="passenger" route="right" depart="21" departLane="4" />
    <vehicle id="left_121" type="passenger" route="left" depart="21" departLane="0" />
    <vehicle id="left_122" type="passenger" route="left" depart="21" departLane="0" />
    <vehicle id="right_123" type="passenger" route="right" depart="22" departLane="1" />
    <vehicle id="up_124" type="passenger" route="up" depart="22" departLane="3" />
    <vehicle id="up_125" type="passenger" route="up" depart="22" departLane="4" />
    <vehicle id="leftTurn2_126" type="passenger" route="leftTurn2" depart="22" departLane="1" />
    <vehicle id="right_127" type="passenger" route="right" depart="23" departLane="4" />
    <vehicle id="left_128" type="passenger" route="left" depart="23" departLane="4" />
    <vehicle id="up_129" type="passenger" route="up" depart="23" departLane="2" />
    <vehicle id="rightTurn3_130" type="passenger" route="rightTurn3" depart="23" departLane="4" />
    <vehicle id="right_131" type="passenger" route="right" depart="24" departLane="4" />
    <vehicle id="left_132" type="passenger" route="left" depart="24" departLane="3" />
    <vehicle id="down_133" type="passenger" route="down" depart="24" departLane="1" />
    <vehicle id="up_134" type="passenger" route="up" depart="24" departLane="0" />
    <vehicle id="leftTurn2_135" type="truck" route="leftTurn2" depart="24" departLane="2" />
    <vehicle id="leftTurn2_136" type="passenger" route="leftTurn2" depart="24" departLane="0" />
    <vehicle id="leftTurn2_137" type="passenger" route="leftTurn2" depart="24" departLane="4" />
    <vehicle id="right_138" type="passenger" route="right" depart="25" departLane="2" />
    <vehicle id="down_139" type="passenger" route="down" depart="25" departLane="3" />
    <vehicle id="down_140" type="passenger" route="down" depart="25" departLane="2" />
    <vehicle id="up_141" type="passenger" route="up" depart="25" departLane="3" />
    <vehicle id="leftTurn2_142" type="passenger" route="leftTurn2" depart="25" departLane="4" />
    <vehicle id="leftTurn2_143" type="truck" route="leftTurn2" depart="25" departLane="3" />
    <vehicle id="right_144" type="passenger" route="right" depart="26" departLane="1" />
    <vehicle id="right_145" type="passenger" route="right" depart="26" departLane="3" />
    <vehicle id="right_146" type="truck" route="right" depart="26" departLane="2" />
    <vehicle id="left_147" type="passenger" route="left" depart="26" departLane="4" />
    <vehicle id="left_148" type="passenger" route="left" depart="26" departLane="1" />
    <vehicle id="right_149" type="passenger" route="right" depart="27" departLane="1" />
    <vehicle id="down_150" type="passenger" route="down" depart="27" departLane="1" />
    <vehicle id="up_151" type="passenger" route="up" depart="27" departLane="1" />
    <vehicle id="up_152" type="passenger" route="up" depart="27" departLane="2" />
    <vehicle id="leftTurn2_153" type="passenger" route="leftTurn2" depart="27" departLane="0" />
    <vehicle id="left_154" type="passenger" route="left" depart="28" departLane="1" />
    <vehicle id="left_155" type="passenger" route="left" depart="28" departLane="1" />
    <vehicle id="right_156" type="passenger" route="right" depart="29" departLane="1" />
    <vehicle id="right_157" type="passenger" route="right" depart="29" departLane="4" />
    <vehicle id="right_158" type="passenger" route="right" depart="29" departLane="1" />
    <vehicle id="right_159" type="passenger" route="right" depart="29" departLane="0" />
    <vehicle id="left_160" type="passenger" route="left" depart="29" departLane="3" />
    <vehicle id="left_161" type="passenger" route="left" depart="29" departLane="1" />
    <vehicle id="left_162" type="passenger" route="left" depart="29" departLane="1" />
    <vehicle id="right_163" type="truck" route="right" depart="30" departLane="3" />
    <vehicle id="right_164" type="passenger" route="right" depart="30" departLane="2" />
    <vehicle id="right_165" type="passenger" route="right" depart="30" departLane="1" />
    <vehicle id="left_166" type="passenger" route="left" depart="30" departLane="1" />
    <vehicle id="left_167" type="passenger" route="left" depart="30" departLane="3" />
    <vehicle id="left_168" type="truck" route="left" depart="30" departLane="3" />
    <vehicle id="right_169" type="truck" route="right" depart="31" departLane="3" />
    <vehicle id="right_170" type="passenger" route="right" depart="31" departLane="0" />
    <vehicle id="right_171" type="passenger" route="right" depart="31" departLane="3" />
    <vehicle id="left_172" type="passenger" route="left" depart="31" departLane="2" />
    <vehicle id="left_173" type="passenger" route="left" depart="31" departLane="4" />
    <vehicle id="rightTurn1_174" type="passenger" route="rightTurn1" depart="31" departLane="0" />
    <vehicle id="right_175" type="passenger" route="right" depart="32" departLane="4" />
    <vehicle id="right_176" type="passenger" route="right" depart="33" departLane="4" />
    <vehicle id="right_177" type="bus" route="right" depart="33" departLane="2" />
    <vehicle id="left_178" type="truck" route="left" depart="33" departLane="1" />
    <vehicle id="left_179" type="passenger" route="left" depart="33" departLane="3" />
    <vehicle id="left_180" type="passenger" route="left" depart="33" departLane="0" />
    <vehicle id="left_181" type="passenger" route="left" depart="33" departLane="3" />
    <vehicle id="up_182" type="passenger" route="up" depart="33" departLane="3" />
    <vehicle id="up_183" type="passenger" route="up" depart="33" departLane="2" />
    <vehicle id="right_184" type="passenger" route="right" depart="34" departLane="1" />
    <vehicle id="right_185" type="passenger" route="right" depart="34" departLane="4" />
    <vehicle id="right_186" type="passenger" route="right" depart="34" departLane="0" />
    <vehicle id="left_187" type="passenger" route="left" depart="34" departLane="0" />
    <vehicle id="left_188" type="passenger" route="left" depart="34" departLane="3" />
    <vehicle id="left_189" type="passenger" route="left" depart="34" departLane="1" />
    <vehicle id="down_190" type="passenger" route="down" depart="34" departLane="2" />
    <vehicle id="up_191" type="truck" route="up" depart="34" departLane="3" />
    <vehicle id="right_192" type="passenger" route="right" depart="35" departLane="1" />
    <vehicle id="left_193" type="passenger" route="left" depart="35" departLane="1" />
    <vehicle id="left_194" type="passenger" route="left" depart="35" departLane="1" />
    <vehicle id="left_195" type="passenger" route="left" depart="35" departLane="1" />
    <vehicle id="left_196" type="passenger" route="left" depart="35" departLane="4" />
    <vehicle id="left_197" type="passenger" route="left" depart="35" departLane="3" />
    <vehicle id="up_198" type="passenger" route="up" depart="35" departLane="0" />
    <vehicle id="leftTurn2_199" type="passenger" route="leftTurn2" depart="35" departLane="0" />
    <vehicle id="leftTurn2_200" type="passenger" route="leftTurn2" depart="35" departLane="0" />
    <vehicle id="right_201" type="passenger" route="right" depart="36" departLane="1" />
    <vehicle id="left_202" type="passenger" route="left" depart="36" departLane="3" />
    <vehicle id="left_203" type="passenger" route="left" depart="36" departLane="3" />
    <vehicle id="up_204" type="passenger" route="up" depart="36" departLane="1" />
    <vehicle id="leftTurn1_205" type="passenger" route="leftTurn1" depart="36" departLane="0" />
    <vehicle id="left_206" type="passenger" route="left" depart="37" departLane="0" />
    <vehicle id="left_207" type="passenger" route="left" depart="37" departLane="4" />
    <vehicle id="left_208" type="passenger" route="left" depart="37" departLane="2" />
    <vehicle id="left_209" type="passenger" route="left" depart="37" departLane="3" />
    <vehicle id="up_210" type="passenger" route="up" depart="37" departLane="3" />
    <vehicle id="leftTurn2_211" type="passenger" route="leftTurn2" depart="37" departLane="2" />
    <vehicle id="leftTurn2_212" type="passenger" route="leftTurn2" depart="37" departLane="1" />
    <vehicle id="leftTurn2_213" type="passenger" route="leftTurn2" depart="37" departLane="1" />
    <vehicle id="right_214" type="passenger" route="right" depart="38" departLane="0" />
    <vehicle id="right_215" type="passenger" route="right" depart="38" departLane="0" />
    <vehicle id="left_216" type="passenger" route="left" depart="38" departLane="2" />
    <vehicle id="left_217" type="passenger" route="left" depart="38" departLane="0" />
    <vehicle id="up_218" type="passenger" route="up" depart="38" departLane="2" />
    <vehicle id="leftTurn1_219" type="passenger" route="leftTurn1" depart="38" departLane="2" />
    <vehicle id="leftTurn2_220" type="passenger" route="leftTurn2" depart="38" departLane="4" />
    <vehicle id="right_221" type="passenger" route="right" depart="39" departLane="4" />
    <vehicle id="right_222" type="passenger" route="right" depart="39" departLane="4" />
    <vehicle id="left_223" type="passenger" route="left" depart="39" departLane="0" />
    <vehicle id="up_224" type="passenger" route="up" depart="39" departLane="4" />
    <vehicle id="right_225" type="passenger" route="right" depart="40" departLane="1" />
    <vehicle id="left_226" type="passenger" route="left" depart="40" departLane="1" />
    <vehicle id="left_227" type="passenger" route="left" depart="40" departLane="3" />
    <vehicle id="down_228" type="passenger" route="down" depart="40" departLane="0" />
    <vehicle id="up_229" type="passenger" route="up" depart="40" departLane="0" />
    <vehicle id="leftTurn1_230" type="passenger" route="leftTurn1" depart="40" departLane="3" />
    <vehicle id="leftTurn2_231" type="passenger" route="leftTurn2" depart="40" departLane="1" />
    <vehicle id="leftTurn2_232" type="passenger" route="leftTurn2" depart="40" departLane="1" />
    <vehicle id="right_233" type="passenger" route="right" depart="41" departLane="4" />
    <vehicle id="right_234" type="passenger" route="right" depart="41" departLane="1" />
    <vehicle id="left_235" type="passenger" route="left" depart="41" departLane="3" />
    <vehicle id="left_236" type="passenger" route="left" depart="41" departLane="3" />
    <vehicle id="left_237" type="passenger" route="left" depart="41" departLane="1" />
    <vehicle id="up_238" type="passenger" route="up" depart="41" departLane="2" />
    <vehicle id="up_239" type="passenger" route="up" depart="41" departLane="3" />
    <vehicle id="up_240" type="passenger" route="up" depart="41" departLane="4" />
    <vehicle id="leftTurn1_241" type="passenger" route="leftTurn1" depart="41" departLane="4" />
    <vehicle id="right_242" type="passenger" route="right" depart="42" departLane="2" />
    <vehicle id="down_243" type="passenger" route="down" depart="42" departLane="2" />
    <vehicle id="down_244" type="passenger" route="down" depart="42" departLane="3" />
    <vehicle id="down_245" type="passenger" route="down" depart="42" departLane="2" />
    <vehicle id="leftTurn2_246" type="passenger" route="leftTurn2" depart="42" departLane="4" />
    <vehicle id="leftTurn2_247" type="passenger" route="leftTurn2" depart="42" departLane="4" />
    <vehicle id="right_248" type="passenger" route="right" depart="43" departLane="0" />
    <vehicle id="left_249" type="passenger" route="left" depart="43" departLane="0" />
    <vehicle id="left_250" type="passenger" route="left" depart="43" departLane="0" />
    <vehicle id="leftTurn1_251" type="passenger" route="leftTurn1" depart="43" departLane="3" />
    <vehicle id="leftTurn2_252" type="passenger" route="leftTurn2" depart="43" departLane="3" />
    <vehicle id="right_253" type="passenger" route="right" depart="44" departLane="0" />
    <vehicle id="left_254" type="passenger" route="left" depart="44" departLane="2" />
    <vehicle id="down_255" type="passenger" route="down" depart="44" departLane="3" />
    <vehicle id="up_256" type="passenger" route="up" depart="44" departLane="1" />
    <vehicle id="leftTurn1_257" type="passenger" route="leftTurn1" depart="44" departLane="3" />
    <vehicle id="leftTurn2_258" type="passenger" route="leftTurn2" depart="44" departLane="4" />
    <vehicle id="right_259" type="passenger" route="right" depart="45" departLane="1" />
    <vehicle id="right_260" type="passenger" route="right" depart="45" departLane="3" />
    <vehicle id="left_261" type="passenger" route="left" depart="45" departLane="4" />
    <vehicle id="up_262" type="passenger" route="up" depart="45" departLane="3" />
    <vehicle id="up_263" type="truck" route="up" depart="45" departLane="1" />
    <vehicle id="leftTurn2_264" type="passenger" route="leftTurn2" depart="45" departLane="4" />
    <vehicle id="right_265" type="passenger" route="right" depart="46" departLane="1" />
    <vehicle id="right_266" type="passenger" route="right" depart="46" departLane="4" />
    <vehicle id="left_267" type="passenger" route="left" depart="46" departLane="0" />
    <vehicle id="up_268" type="passenger" route="up" depart="46" departLane="3" />
    <vehicle id="right_269" type="truck" route="right" depart="47" departLane="1" />
    <vehicle id="right_270" type="passenger" route="right" depart="47" departLane="3" />
    <vehicle id="right_271" type="passenger" route="right" depart="47" departLane="1" />
    <vehicle id="left_272" type="passenger" route="left" depart="47" departLane="1" />
    <vehicle id="up_273" type="passenger" route="up" depart="47" departLane="2" />
    <vehicle id="up_274" type="passenger" route="up" depart="47" departLane="1" />
    <vehicle id="leftTurn2_275" type="passenger" route="leftTurn2" depart="47" departLane="3" />
    <vehicle id="leftTurn2_276" type="passenger" route="leftTurn2" depart="47" departLane="0" />
    <vehicle id="right_277" type="passenger" route="right" depart="48" departLane="2" />
    <vehicle id="right_278" type="passenger" route="right" depart="48" departLane="4" />
    <vehicle id="right_279" type="passenger" route="right" depart="49" departLane="2" />
    <vehicle id="right_280" type="passenger" route="right" depart="49" departLane="0" />
    <vehicle id="left_281" type="passenger" route="left" depart="49" departLane="3" />
    <vehicle id="left_282" type="passenger" route="left" depart="49" departLane="0" />
    <vehicle id="left_283" type="passenger" route="left" depart="49" departLane="1" />
    <vehicle id="left_284" type="passenger" route="left" depart="49" departLane="0" />
    <vehicle id="down_285" type="passenger" route="down" depart="49" departLane="4" />
    <vehicle id="up_286" type="passenger" route="up" depart="49" departLane="0" />
    <vehicle id="up_287" type="passenger" route="up" depart="49" departLane="4" />
    <vehicle id="emergency_288" type="emergency" route="left" depart="50" departLane="3" />
    <vehicle id="right_289" type="passenger" route="right" depart="50" departLane="0" />
    <vehicle id="left_290" type="passenger" route="left" depart="50" departLane="0" />
    <vehicle id="left_291" type="passenger" route="left" depart="50" departLane="3" />
    <vehicle id="leftTurn2_292" type="passenger" route="leftTurn2" depart="50" departLane="3" />
    <vehicle id="right_293" type="truck" route="right" depart="51" departLane="3" />
    <vehicle id="right_294" type="passenger" route="right" depart="51" departLane="4" />
    <vehicle id="left_295" type="passenger" route="left" depart="51" departLane="3" />
    <vehicle id="left_296" type="passenger" route="left" depart="51" departLane="1" />
    <vehicle id="left_297" type="passenger" route="left" depart="51" departLane="1" />
    <vehicle id="up_298" type="passenger" route="up" depart="51" departLane="4" />
    <vehicle id="leftTurn1_299" type="truck" route="leftTurn1" depart="51" departLane="2" />
    <vehicle id="left_300" type="passenger" route="left" depart="52" departLane="4" />
    <vehicle id="left_301" type="passenger" route="left" depart="52" departLane="4" />
    <vehicle id="up_302" type="passenger" route="up" depart="52" departLane="4" />
    <vehicle id="leftTurn2_303" type="passenger" route="leftTurn2" depart="52" departLane="3" />
    <vehicle id="left_304" type="passenger" route="left" depart="53" departLane="1" />
    <vehicle id="up_305" type="passenger" route="up" depart="53" departLane="4" />
    <vehicle id="up_306" type="passenger" route="up" depart="53" departLane="0" />
    <vehicle id="leftTurn2_307" type="passenger" route="leftTurn2" depart="53" departLane="0" />
    <vehicle id="leftTurn2_308" type="truck" route="leftTurn2" depart="53" departLane="3" />
    <vehicle id="right_309" type="passenger" route="right" depart="54" departLane="2" />
    <vehicle id="right_310" type="passenger" route="right" depart="54" departLane="1" />
    <vehicle id="left_311" type="passenger" route="left" depart="54" departLane="3" />
    <vehicle id="left_312" type="passenger" route="left" depart="54" departLane="4" />
    <vehicle id="left_313" type="passenger" route="left" depart="54" departLane="0" />
    <vehicle id="left_314" type="passenger" route="left" depart="55" departLane="3" />
    <vehicle id="left_315" type="passenger" route="left" depart="55" departLane="2" />
    <vehicle id="up_316" type="passenger" route="up" depart="55" departLane="2" />
    <vehicle id="leftTurn1_317" type="passenger" route="leftTurn1" depart="55" departLane="1" />
    <vehicle id="leftTurn1_318" type="passenger" route="leftTurn1" depart="55" departLane="1" />
    <vehicle id="right_319" type="passenger" route="right" depart="56" departLane="1" />
    <vehicle id="left_320" type="passenger" route="left" depart="56" departLane="3" />
    <vehicle id="left_321" type="passenger" route="left" depart="56" departLane="2" />
    <vehicle id="left_322" type="passenger" route="left" depart="56" departLane="4" />
    <vehicle id="down_323" type="passenger" route="down" depart="56" departLane="2" />
    <vehicle id="up_324" type="passenger" route="up" depart="56" departLane="2" />
    <vehicle id="up_325" type="passenger" route="up" depart="56" departLane="0" />
    <vehicle id="up_326" type="passenger" route="up" depart="56" departLane="2" />
    <vehicle id="leftTurn2_327" type="passenger" route="leftTurn2" depart="56" departLane="3" />