<routes>
        <vType id="passenger" accel="0.8" decel="4.5" sigma="0.5" length="5" minGap="2" maxSpeed="16.67" guiShape="passenger"/>
        <vType id="emergency" accel="0.8" decel="4.5" sigma="0.5" length="7" minGap="3" maxSpeed="25" guiShape="emergency"/>

        <route id="right" edges="3c c4" />
        <route id="left" edges="4c c3" />
        <route id="down" edges="1c c2" />
        <route id="up" edges="2c c1" />
        <route id="leftTurn1" edges="4c c2" />
        <route id="leftTurn2" edges="3c c1" />
        <route id="rightTurn1" edges="2c c4" />
        <route id="rightTurn2" edges="4c c1" />
        <route id="rightTurn3" edges="1c c3" />
        <route id="rightTurn4" edges="3c c2" />
        <route id="uTurn1" edges="1c c1" />
        <route id="uTurn2" edges="2c c2" />
              
    <vehicle id="right_0" type="passenger" route="right" depart="0" departLane="4" />
    <vehicle id="left_1" type="passenger" route="left" depart="0" departLane="0" />
    <vehicle id="emergency_2" type="emergency" route="left" depart="0" departLane="4" />
    <vehicle id="down_3" type="passenger" route="down" depart="0" departLane="3" />
    <vehicle id="down_4" type="passenger" route="down" depart="0" departLane="3" />
    <vehicle id="up_5" type="passenger" route="up" depart="0" departLane="2" />
    <vehicle id="leftTurn2_6" type="passenger" route="leftTurn2" depart="0" departLane="1" />
    <vehicle id="leftTurn2_7" type="passenger" route="leftTurn2" depart="0" departLane="0" />
    <vehicle id="leftTurn2_8" type="passenger" route="leftTurn2" depart="0" departLane="4" />
    <vehicle id="rightTurn2_9" type="passenger" route="rightTurn2" depart="0" departLane="3" />
    <vehicle id="uTurn2_10" type="passenger" route="uTurn2" depart="0" departLane="2" />
    <vehicle id="right_11" type="passenger" route="right" depart="1" departLane="0" />
    <vehicle id="right_12" type="passenger" route="right" depart="1" departLane="1" />
    <vehicle id="right_13" type="passenger" route="right" depart="1" departLane="2" />
    <vehicle id="right_14" type="passenger" route="right" depart="1" departLane="0" />
    <vehicle id="left_15" type="passenger" route="left" depart="1" departLane="3" />
    <vehicle id="up_16" type="passenger" route="up" depart="1" departLane="4" />
    <vehicle id="up_17" type="passenger" route="up" depart="1" departLane="2" />
    <vehicle id="leftTurn1_18" type="passenger" route="leftTurn1" depart="1" departLane="3" />
    <vehicle id="leftTurn2_19" type="passenger" route="leftTurn2" depart="1" departLane="3" />
    <vehicle id="rightTurn2_20" type="passenger" route="rightTurn2" depart="1" departLane="2" />
    <vehicle id="right_21" type="passenger" route="right" depart="2" departLane="2" />
    <vehicle id="right_22" type="passenger" route="right" depart="2" departLane="3" />
    <vehicle id="left_23" type="passenger" route="left" depart="2" departLane="1" />
    <vehicle id="emergency_24" type="emergency" route="left" depart="2" departLane="2" />
    <vehicle id="left_25" type="passenger" route="left" depart="2" departLane="1" />
    <vehicle id="down_26" type="passenger" route="down" depart="2" departLane="4" />
    <vehicle id="leftTurn1_27" type="passenger" route="leftTurn1" depart="2" departLane="3" />
    <vehicle id="leftTurn1_28" type="passenger" route="leftTurn1" depart="2" departLane="0" />
    <vehicle id="rightTurn4_29" type="passenger" route="rightTurn4" depart="2" departLane="4" />
    <vehicle id="uTurn2_30" type="passenger" route="uTurn2" depart="2" departLane="0" />
    <vehicle id="right_31" type="passenger" route="right" depart="3" departLane="1" />
    <vehicle id="down_32" type="passenger" route="down" depart="3" departLane="1" />
    <vehicle id="up_33" type="passenger" route="up" depart="3" departLane="1" />
    <vehicle id="rightTurn1_34" type="passenger" route="rightTurn1" depart="3" departLane="2" />
    <vehicle id="left_35" type="passenger" route="left" depart="4" departLane="4" />
    <vehicle id="emergency_36" type="emergency" route="left" depart="4" departLane="1" />
    <vehicle id="left_37" type="passenger" route="left" depart="4" departLane="4" />
    <vehicle id="emergency_38" type="emergency" route="left" depart="4" departLane="3" />
    <vehicle id="emergency_39" type="emergency" route="left" depart="4" departLane="4" />
    <vehicle id="down_40" type="passenger" route="down" depart="4" departLane="4" />
    <vehicle id="down_41" type="passenger" route="down" depart="4" departLane="1" />
    <vehicle id="up_42" type="passenger" route="up" depart="4" departLane="1" />
    <vehicle id="leftTurn1_43" type="passenger" route="leftTurn1" depart="4" departLane="3" />
    <vehicle id="rightTurn1_44" type="passenger" route="rightTurn1" depart="4" departLane="1" />
    <vehicle id="uTurn1_45" type="passenger" route="uTurn1" depart="4" departLane="0" />
    <vehicle id="right_47" type="passenger" route="right" depart="6" departLane="3" />
    <vehicle id="left_48" type="passenger" route="left" depart="6" departLane="2" />
    <vehicle id="down_49" type="passenger" route="down" depart="6" departLane="0" />
    <vehicle id="up_50" type="passenger" route="up" depart="6" departLane="4" />
    <vehicle id="up_51" type="passenger" route="up" depart="6" departLane="0" />
    <vehicle id="rightTurn3_52" type="passenger" route="rightTurn3" depart="6" departLane="1" />
    <vehicle id="right_53" type="passenger" route="right" depart="7" departLane="3" />
    <vehicle id="right_54" type="passenger" route="right" depart="7" departLane="4" />
    <vehicle id="left_55" type="passenger" route="left" depart="7" departLane="2" />
    <vehicle id="down_56" type="passenger" route="down" depart="7" departLane="1" />
    <vehicle id="up_57" type="passenger" route="up" depart="7" departLane="0" />
    <vehicle id="up_58" type="passenger" route="up" depart="7" departLane="0" />
    <vehicle id="leftTurn1_59" type="passenger" route="leftTurn1" depart="7" departLane="3" />
    <vehicle id="leftTurn1_60" type="passenger" route="leftTurn1" depart="7" departLane="1" />
    <vehicle id="uTurn1_61" type="passenger" route="uTurn1" depart="7" departLane="1" />
    <vehicle id="uTurn2_62" type="passenger" route="uTurn2" depart="7" departLane="2" />
    <vehicle id="right_63" type="passenger" route="right" depart="8" departLane="3" />
    <vehicle id="left_64" type="passenger" route="left" depart="8" departLane="3" />
    <vehicle id="emergency_65" type="emergency" route="left" depart="8" departLane="2" />
    <vehicle id="up_66" type="passenger" route="up" depart="8" departLane="4" />
    <vehicle id="leftTurn2_67" type="passenger" route="leftTurn2" depart="8" departLane="1" />
    <vehicle id="rightTurn1_68" type="passenger" route="rightTurn1" depart="8" departLane="0" />
    <vehicle id="rightTurn2_69" type="passenger" route="rightTurn2" depart="8" departLane="2" />
    <vehicle id="right_70" type="passenger" route="right" depart="9" departLane="3" />
    <vehicle id="emergency_71" type="emergency" route="left" depart="9" departLane="2" />
    <vehicle id="left_72" type="passenger" route="left" depart="9" departLane="1" />
    <vehicle id="left_73" type="passenger" route="left" depart="9" departLane="3" />
    <vehicle id="left_74" type="passenger" route="left" depart="9" departLane="2" />
    <vehicle id="up_75" type="passenger" route="up" depart="9" departLane="0" />
    <vehicle id="leftTurn1_76" type="passenger" route="leftTurn1" depart="9" departLane="4" />
    <vehicle id="leftTurn1_77" type="passenger" route="leftTurn1" depart="9" departLane="0" />
    <vehicle id="up_78" type="passenger" route="up" depart="10" departLane="2" />
    <vehicle id="up_79" type="passenger" route="up" depart="10" departLane="2" />
    <vehicle id="up_80" type="passenger" route="up" depart="10" departLane="1" />
    <vehicle id="leftTurn1_81" type="passenger" route="leftTurn1" depart="10" departLane="0" />
    <vehicle id="rightTurn2_84" type="passenger" route="rightTurn2" depart="10" departLane="3" />
    <vehicle id="rightTurn4_85" type="passenger" route="rightTurn4" depart="10" departLane="4" />
    <vehicle id="right_86" type="passenger" route="right" depart="11" departLane="1" />
    <vehicle id="right_87" type="passenger" route="right" depart="11" departLane="3" />
    <vehicle id="right_88" type="passenger" route="right" depart="11" departLane="3" />
    <vehicle id="left_89" type="passenger" route="left" depart="11" departLane="1" />
    <vehicle id="left_90" type="passenger" route="left" depart="11" departLane="2" />
    <vehicle id="down_91" type="passenger" route="down" depart="11" departLane="4" />
    <vehicle id="up_92" type="passenger" route="up" depart="11" departLane="3" />
    <vehicle id="right_93" type="passenger" route="right" depart="12" departLane="0" />
    <vehicle id="down_94" type="passenger" route="down" depart="12" departLane="1" />
    <vehicle id="up_95" type="passenger" route="up" depart="12" departLane="3" />
    <vehicle id="leftTurn2_96" type="passenger" route="leftTurn2" depart="12" departLane="3" />
    <vehicle id="rightTurn1_97" type="passenger" route="rightTurn1" depart="12" departLane="3" />
    <vehicle id="rightTurn2_98" type="passenger" route="rightTurn2" depart="12" departLane="1" />
    <vehicle id="rightTurn2_99" type="passenger" route="rightTurn2" depart="12" departLane="3" />
    <vehicle id="rightTurn3_100" type="passenger" route="rightTurn3" depart="12" departLane="4" />
    <vehicle id="uTurn1_101" type="passenger" route="uTurn1" depart="12" departLane="4" />
    <vehicle id="uTurn2_102" type="passenger" route="uTurn2" depart="12" departLane="2" />
    <vehicle id="right_103" type="passenger" route="right" depart="13" departLane="4" />
    <vehicle id="right_104" type="passenger" route="right" depart="13" departLane="3" />
    <vehicle id="right_105" type="passenger" route="right" depart="13" departLane="3" />
    <vehicle id="left_106" type="passenger" route="left" depart="13" departLane="1" />
    <vehicle id="left_107" type="passenger" route="left" depart="13" departLane="0" />
    <vehicle id="down_108" type="passenger" route="down" depart="13" departLane="3" />
    <vehicle id="up_109" type="passenger" route="up" depart="13" departLane="0" />
    <vehicle id="up_110" type="passenger" route="up" depart="13" departLane="0" />
    <vehicle id="leftTurn1_111" type="passenger" route="leftTurn1" depart="13" departLane="3" />
    <vehicle id="right_112" type="passenger" route="right" depart="14" departLane="4" />
    <vehicle id="right_113" type="passenger" route="right" depart="14" departLane="0" />
    <vehicle id="left_114" type="passenger" route="left" depart="14" departLane="0" />
    <vehicle id="emergency_115" type="emergency" route="left" depart="14" departLane="1" />
    <vehicle id="left_116" type="passenger" route="left" depart="14" departLane="3" />
    <vehicle id="emergency_117" type="emergency" route="left" depart="14" departLane="3" />
    <vehicle id="up_118" type="passenger" route="up" depart="14" departLane="3" />
    <vehicle id="leftTurn1_119" type="passenger" route="leftTurn1" depart="14" departLane="4" />
    <vehicle id="leftTurn2_120" type="passenger" route="leftTurn2" depart="14" departLane="3" />
    <vehicle id="right_121" type="passenger" route="right" depart="15" departLane="2" />
    <vehicle id="right_122" type="passenger" route="right" depart="15" departLane="2" />
    <vehicle id="right_123" type="passenger" route="right" depart="15" departLane="3" />
    <vehicle id="emergency_124" type="emergency" route="left" depart="15" departLane="3" />
    <vehicle id="left_125" type="passenger" route="left" depart="15" departLane="4" />
    <vehicle id="down_126" type="passenger" route="down" depart="15" departLane="1" />
    <vehicle id="down_127" type="passenger" route="down" depart="15" departLane="1" />
    <vehicle id="down_128" type="passenger" route="down" depart="15" departLane="2" />
    <vehicle id="up_129" type="passenger" route="up" depart="15" departLane="4" />
    <vehicle id="up_130" type="passenger" route="up" depart="15" departLane="0" />
    <vehicle id="up_131" type="passenger" route="up" depart="15" departLane="1" />
    <vehicle id="leftTurn2_132" type="passenger" route="leftTurn2" depart="15" departLane="4" />
    <vehicle id="leftTurn2_133" type="passenger" route="leftTurn2" depart="15" departLane="4" />
    <vehicle id="right_134" type="passenger" route="right" depart="16" departLane="3" />
    <vehicle id="right_135" type="passenger" route="right" depart="16" departLane="0" />
    <vehicle id="right_136" type="passenger" route="right" depart="16" departLane="0" />
    <vehicle id="right_137" type="passenger" route="right" depart="16" departLane="2" />
    <vehicle id="left_138" type="passenger" route="left" depart="16" departLane="3" />
    <vehicle id="left_139" type="passenger" route="left" depart="16" departLane="1" />
    <vehicle id="up_140" type="passenger" route="up" depart="16" departLane="0" />
    <vehicle id="up_141" type="passenger" route="up" depart="16" departLane="0" />
    <vehicle id="leftTurn2_142" type="passenger" route="leftTurn2" depart="16" departLane="4" />
    <vehicle id="leftTurn2_143" type="passenger" route="leftTurn2" depart="16" departLane="4" />
    <vehicle id="rightTurn1_144" type="passenger" route="rightTurn1" depart="16" departLane="0" />
    <vehicle id="rightTurn3_145" type="passenger" route="rightTurn3" depart="16" departLane="2" />
    <vehicle id="rightTurn3_146" type="passenger" route="rightTurn3" depart="16" departLane="1" />
    <vehicle id="uTurn1_147" type="passenger" route="uTurn1" depart="16" departLane="3" />
    <vehicle id="right_148" type="passenger" route="right" depart="17" departLane="1" />
    <vehicle id="right_149" type="passenger" route="right" depart="17" departLane="2" />
    <vehicle id="down_150" type="passenger" route="down" depart="17" departLane="4" />
    <vehicle id="up_151" type="passenger" route="up" depart="17" departLane="3" />
    <vehicle id="up_152" type="passenger" route="up" depart="17" departLane="1" />
    <vehicle id="up_153" type="passenger" route="up" depart="17" departLane="2" />
    <vehicle id="leftTurn1_154" type="passenger" route="leftTurn1" depart="17" departLane="1" />
    <vehicle id="leftTurn1_155" type="passenger" route="leftTurn1" depart="17" departLane="0" />
    <vehicle id="right_156" type="passenger" route="right" depart="18" departLane="4" />
    <vehicle id="left_157" type="passenger" route="left" depart="18" departLane="1" />
    <vehicle id="left_158" type="passenger" route="left" depart="18" departLane="0" />
    <vehicle id="left_159" type="passenger" route="left" depart="18" departLane="2" />
    <vehicle id="left_160" type="passenger" route="left" depart="18" departLane="3" />
    <vehicle id="down_161" type="passenger" route="down" depart="18" departLane="4" />
    <vehicle id="up_162" type="passenger" route="up" depart="18" departLane="3" />
    <vehicle id="leftTurn1_163" type="passenger" route="leftTurn1" depart="18" departLane="3" />
    <vehicle id="rightTurn1_164" type="passenger" route="rightTurn1" depart="18" departLane="4" />
    <vehicle id="rightTurn3_165" type="passenger" route="rightTurn3" depart="18" departLane="1" />
    <vehicle id="rightTurn4_166" type="passenger" route="rightTurn4" depart="18" departLane="2" />
    <vehicle id="right_167" type="passenger" route="right" depart="19" departLane="4" />
    <vehicle id="right_168" type="passenger" route="right" depart="19" departLane="2" />
    <vehicle id="right_169" type="passenger" route="right" depart="19" departLane="0" />
    <vehicle id="right_170" type="passenger" route="right" depart="19" departLane="0" />
    <vehicle id="left_171" type="passenger" route="left" depart="19" departLane="1" />
    <vehicle id="left_172" type="passenger" route="left" depart="19" departLane="3" />
    <vehicle id="leftTurn1_173" type="passenger" route="leftTurn1" depart="19" departLane="1" />
    <vehicle id="leftTurn2_174" type="passenger" route="leftTurn2" depart="19" departLane="0" />
    <vehicle id="leftTurn2_175" type="passenger" route="leftTurn2" depart="19" departLane="3" />
    <vehicle id="rightTurn1_178" type="passenger" route="rightTurn1" depart="19" departLane="2" />
    <vehicle id="right_179" type="passenger" route="right" depart="20" departLane="2" />
    <vehicle id="left_180" type="passenger" route="left" depart="20" departLane="2" />
    <vehicle id="down_181" type="passenger" route="down" depart="20" departLane="1" />
    <vehicle id="up_182" type="passenger" route="up" depart="20" departLane="2" />
    <vehicle id="leftTurn1_183" type="passenger" route="leftTurn1" depart="20" departLane="3" />
    <vehicle id="leftTurn1_184" type="passenger" route="leftTurn1" depart="20" departLane="2" />
    <vehicle id="rightTurn1_185" type="passenger" route="rightTurn1" depart="20" departLane="4" />
    <vehicle id="rightTurn2_186" type="passenger" route="rightTurn2" depart="20" departLane="3" />
    <vehicle id="rightTurn3_187" type="passenger" route="rightTurn3" depart="20" departLane="4" />
    <vehicle id="right_188" type="passenger" route="right" depart="21" departLane="2" />
    <vehicle id="down_189" type="passenger" route="down" depart="21" departLane="3" />
    <vehicle id="down_190" type="passenger" route="down" depart="21" departLane="3" />
    <vehicle id="down_191" type="passenger" route="down" depart="21" departLane="2" />
    <vehicle id="up_192" type="passenger" route="up" depart="21" departLane="2" />
    <vehicle id="leftTurn2_193" type="passenger" route="leftTurn2" depart="21" departLane="2" />
    <vehicle id="leftTurn2_194" type="passenger" route="leftTurn2" depart="21" departLane="3" />
    <vehicle id="rightTurn1_195" type="passenger" route="rightTurn1" depart="21" departLane="3" />
    <vehicle id="rightTurn1_196" type="passenger" route="rightTurn1" depart="21" departLane="3" />
    <vehicle id="rightTurn2_197" type="passenger" route="rightTurn2" depart="21" departLane="4" />
    <vehicle id="rightTurn2_198" type="passenger" route="rightTurn2" depart="21" departLane="3" />
    <vehicle id="rightTurn4_199" type="passenger" route="rightTurn4" depart="21" departLane="0" />
    <vehicle id="right_200" type="passenger" route="right" depart="22" departLane="4" />
    <vehicle id="down_201" type="passenger" route="down" depart="22" departLane="2" />
    <vehicle id="down_202" type="passenger" route="down" depart="22" departLane="3" />
    <vehicle id="down_203" type="passenger" route="down" depart="22" departLane="1" />
    <vehicle id="up_204" type="passenger" route="up" depart="22" departLane="4" />
    <vehicle id="leftTurn1_205" type="passenger" route="leftTurn1" depart="22" departLane="3" />
    <vehicle id="leftTurn1_206" type="passenger" route="leftTurn1" depart="22" departLane="4" />
    <vehicle id="rightTurn1_207" type="passenger" route="rightTurn1" depart="22" departLane="0" />
    <vehicle id="rightTurn3_208" type="passenger" route="rightTurn3" depart="22" departLane="4" />
    <vehicle id="uTurn2_209" type="passenger" route="uTurn2" depart="22" departLane="2" />
    <vehicle id="uTurn2_210" type="passenger" route="uTurn2" depart="22" departLane="0" />
    <vehicle id="right_211" type="passenger" route="right" depart="23" departLane="4" />
    <vehicle id="right_212" type="passenger" route="right" depart="23" departLane="2" />
    <vehicle id="emergency_213" type="emergency" route="left" depart="23" departLane="2" />
    <vehicle id="up_214" type="passenger" route="up" depart="23" departLane="3" />
    <vehicle id="up_215" type="passenger" route="up" depart="23" departLane="4" />
    <vehicle id="leftTurn1_216" type="passenger" route="leftTurn1" depart="23" departLane="2" />
    <vehicle id="rightTurn3_218" type="passenger" route="rightTurn3" depart="23" departLane="4" />
    <vehicle id="right_219" type="passenger" route="right" depart="24" departLane="1" />
    <vehicle id="right_220" type="passenger" route="right" depart="24" departLane="1" />
    <vehicle id="emergency_221" type="emergency" route="left" depart="24" departLane="1" />
    <vehicle id="down_222" type="passenger" route="down" depart="24" departLane="4" />
    <vehicle id="down_223" type="passenger" route="down" depart="24" departLane="0" />
    <vehicle id="up_224" type="passenger" route="up" depart="24" departLane="1" />
    <vehicle id="up_225" type="passenger" route="up" depart="24" departLane="4" />
    <vehicle id="leftTurn1_226" type="passenger" route="leftTurn1" depart="24" departLane="0" />
    <vehicle id="leftTurn1_227" type="passenger" route="leftTurn1" depart="24" departLane="3" />
    <vehicle id="leftTurn1_228" type="passenger" route="leftTurn1" depart="24" departLane="1" />
    <vehicle id="rightTurn4_229" type="passenger" route="rightTurn4" depart="24" departLane="4" />
    <vehicle id="uTurn2_230" type="passenger" route="uTurn2" depart="24" departLane="4" />
    <vehicle id="right_231" type="passenger" route="right" depart="25" departLane="3" />
    <vehicle id="up_232" type="passenger" route="up" depart="25" departLane="4" />
    <vehicle id="leftTurn1_233" type="passenger" route="leftTurn1" depart="25" departLane="0" />
    <vehicle id="leftTurn2_234" type="passenger" route="leftTurn2" depart="25" departLane="3" />
    <vehicle id="leftTurn2_235" type="passenger" route="leftTurn2" depart="25" departLane="1" />
    <vehicle id="rightTurn2_237" type="passenger" route="rightTurn2" depart="25" departLane="4" />
    <vehicle id="rightTurn2_238" type="passenger" route="rightTurn2" depart="25" departLane="1" />
    <vehicle id="rightTurn4_239" type="passenger" route="rightTurn4" depart="25" departLane="4" />
    <vehicle id="uTurn1_240" type="passenger" route="uTurn1" depart="25" departLane="4" />
    <vehicle id="right_241" type="passenger" route="right" depart="26" departLane="2" />
    <vehicle id="left_242" type="passenger" route="left" depart="26" departLane="0" />
    <vehicle id="emergency_243" type="emergency" route="left" depart="26" departLane="4" />
    <vehicle id="left_244" type="passenger" route="left" depart="26" departLane="4" />
    <vehicle id="down_245" type="passenger" route="down" depart="26" departLane="3" />
    <vehicle id="leftTurn1_246" type="passenger" route="leftTurn1" depart="26" departLane="2" />
    <vehicle id="rightTurn2_247" type="passenger" route="rightTurn2" depart="26" departLane="4" />
    <vehicle id="right_248" type="passenger" route="right" depart="27" departLane="1" />
    <vehicle id="right_249" type="passenger" route="right" depart="27" departLane="1" />
    <vehicle id="right_250" type="passenger" route="right" depart="27" departLane="0" />
    <vehicle id="left_251" type="passenger" route="left" depart="27" departLane="4" />
    <vehicle id="up_252" type="passenger" route="up" depart="27" departLane="2" />
    <vehicle id="up_253" type="passenger" route="up" depart="27" departLane="1" />
    <vehicle id="leftTurn1_254" type="passenger" route="leftTurn1" depart="27" departLane="0" />
    <vehicle id="leftTurn1_255" type="passenger" route="leftTurn1" depart="27" departLane="4" />
    <vehicle id="leftTurn2_256" type="passenger" route="leftTurn2" depart="27" departLane="4" />
    <vehicle id="leftTurn2_257" type="passenger" route="leftTurn2" depart="27" departLane="2" />
    <vehicle id="leftTurn2_258" type="passenger" route="leftTurn2" depart="27" departLane="0" />
    <vehicle id="rightTurn1_259" type="passenger" route="rightTurn1" depart="27" departLane="3" />
    <vehicle id="rightTurn1_260" type="passenger" route="rightTurn1" depart="27" departLane="3" />
    <vehicle id="rightTurn2_261" type="passenger" route="rightTurn2" depart="27" departLane="4" />
    <vehicle id="rightTurn2_262" type="passenger" route="rightTurn2" depart="27" departLane="2" />
    <vehicle id="rightTurn3_263" type="passenger" route="rightTurn3" depart="27" departLane="0" />
    <vehicle id="right_264" type="passenger" route="right" depart="28" departLane="1" />
    <vehicle id="right_265" type="passenger" route="right" depart="28" departLane="3" />
    <vehicle id="down_266" type="passenger" route="down" depart="28" departLane="3" />
    <vehicle id="up_267" type="passenger" route="up" depart="28" departLane="4" />
    <vehicle id="up_268" type="passenger" route="up" depart="28" departLane="3" />
    <vehicle id="leftTurn2_269" type="passenger" route="leftTurn2" depart="28" departLane="3" />
    <vehicle id="leftTurn2_270" type="passenger" route="leftTurn2" depart="28" departLane="4" />
    <vehicle id="rightTurn1_271" type="passenger" route="rightTurn1" depart="28" departLane="1" />
    <vehicle id="rightTurn1_272" type="passenger" route="rightTurn1" depart="28" departLane="2" />
    <vehicle id="rightTurn2_273" type="passenger" route="rightTurn2" depart="28" departLane="3" />
    <vehicle id="right_274" type="passenger" route="right" depart="29" departLane="2" />
    <vehicle id="left_275" type="passenger" route="left" depart="29" departLane="4" />
    <vehicle id="emergency_276" type="emergency" route="left" depart="29" departLane="3" />
    <vehicle id="down_277" type="passenger" route="down" depart="29" departLane="3" />
    <vehicle id="down_278" type="passenger" route="down" depart="29" departLane="1" />
    <vehicle id="down_279" type="passenger" route="down" depart="29" departLane="0" />
    <vehicle id="up_280" type="passenger" route="up" depart="29" departLane="1" />
    <vehicle id="leftTurn2_281" type="passenger" route="leftTurn2" depart="29" departLane="1" />
    <vehicle id="leftTurn2_282" type="passenger" route="leftTurn2" depart="29" departLane="4" />
    <vehicle id="rightTurn1_283" type="passenger" route="rightTurn1" depart="29" departLane="3" />
    <vehicle id="uTurn2_284" type="passenger" route="uTurn2" depart="29" departLane="2" />
    <vehicle id="right_285" type="passenger" route="right" depart="30" departLane="4" />
    <vehicle id="left_286" type="passenger" route="left" depart="30" departLane="3" />
    <vehicle id="down_287" type="passenger" route="down" depart="30" departLane="4" />
    <vehicle id="down_288" type="passenger" route="down" depart="30" departLane="0" />
    <vehicle id="up_289" type="passenger" route="up" depart="30" departLane="1" />
    <vehicle id="leftTurn2_290" type="passenger" route="leftTurn2" depart="30" departLane="2" />
    <vehicle id="rightTurn1_291" type="passenger" route="rightTurn1" depart="30" departLane="1" />
    <vehicle id="rightTurn1_292" type="passenger" route="rightTurn1" depart="30" departLane="0" />
    <vehicle id="rightTurn2_293" type="passenger" route="rightTurn2" depart="30" departLane="4" />
    <vehicle id="rightTurn4_294" type="passenger" route="rightTurn4" depart="30" departLane="1" />
    <vehicle id="right_295" type="passenger" route="right" depart="31" departLane="0" />
    <vehicle id="right_296" type="passenger" route="right" depart="31" departLane="4" />
    <vehicle id="right_297" type="passenger" route="right" depart="31" departLane="2" />
    <vehicle id="emergency_298" type="emergency" route="left" depart="31" departLane="1" />
    <vehicle id="down_299" type="passenger" route="down" depart="31" departLane="0" />
    <vehicle id="up_300" type="passenger" route="up" depart="31" departLane="3" />
    <vehicle id="leftTurn2_301" type="passenger" route="leftTurn2" depart="31" departLane="4" />
    <vehicle id="rightTurn2_302" type="passenger" route="rightTurn2" depart="31" departLane="3" />
    <vehicle id="rightTurn4_303" type="passenger" route="rightTurn4" depart="31" departLane="0" />
    <vehicle id="uTurn1_304" type="passenger" route="uTurn1" depart="31" departLane="2" />
    <vehicle id="uTurn1_305" type="passenger" route="uTurn1" depart="31" departLane="1" />
    <vehicle id="right_306" type="passenger" route="right" depart="32" departLane="3" />
    <vehicle id="right_307" type="passenger" route="right" depart="32" departLane="1" />
    <vehicle id="left_308" type="passenger" route="left" depart="32" departLane="1" />
    <vehicle id="down_309" type="passenger" route="down" depart="32" departLane="3" />
    <vehicle id="uTurn2_311" type="passenger" route="uTurn2" depart="32" departLane="0" />
    <vehicle id="right_312" type="passenger" route="right" depart="33" departLane="1" />
    <vehicle id="left_313" type="passenger" route="left" depart="33" departLane="1" />
    <vehicle id="down_314" type="passenger" route="down" depart="33" departLane="3" />
    <vehicle id="down_315" type="passenger" route="down" depart="33" departLane="1" />
    <vehicle id="up_316" type="passenger" route="up" depart="33" departLane="4" />
    <vehicle id="up_317" type="passenger" route="up" depart="33" departLane="3" />
    <vehicle id="leftTurn2_318" type="passenger" route="leftTurn2" depart="33" departLane="0" />
    <vehicle id="rightTurn1_319" type="passenger" route="rightTurn1" depart="33" departLane="3" />
    <vehicle id="rightTurn1_320" type="passenger" route="rightTurn1" depart="33" departLane="0" />
    <vehicle id="emergency_321" type="emergency" route="left" depart="34" departLane="1" />
    <vehicle id="left_322" type="passenger" route="left" depart="34" departLane="2" />
    <vehicle id="left_323" type="passenger" route="left" depart="34" departLane="4" />
    <vehicle id="down_324" type="passenger" route="down" depart="34" departLane="0" />
    <vehicle id="up_325" type="passenger" route="up" depart="34" departLane="2" />
    <vehicle id="leftTurn1_326" type="passenger" route="leftTurn1" depart="34" departLane="4" />
    <vehicle id="leftTurn2_327" type="passenger" route="leftTurn2" depart="34" departLane="4" />
    <vehicle id="rightTurn1_328" type="passenger" route="rightTurn1" depart="34" departLane="3" />
    <vehicle id="rightTurn1_329" type="passenger" route="rightTurn1" depart="34" departLane="4" />