<routes>
        <vType id="passenger" accel="5" decel="10" sigma="0.5" length="5" minGap="2" departSpeed="16.67" maxSpeed="16.67" guiShape="passenger" color="grey"/>
        <vType id="emergency" vClass="emergency" accel="5" decel="10" sigma="0.5" length="7" minGap="2" departSpeed="16.67" maxSpeed="35" color="red"/>
        <vType id="bus" accel="5" decel="10" sigma="0.5" length="12" minGap="2" departSpeed="12" maxSpeed="12" guiShape="bus" color="0,0,255"/>
        <vType id="truck" accel="5" decel="10" sigma="0.5" length="10" minGap="2" departSpeed="10" maxSpeed="10" guiShape="truck" color="0,255,0"/>
        
        <route id="right" edges="3c c4" />
        <route id="left" edges="4c c3" />
        <route id="down" edges="1c c2" />
        <route id="up" edges="2c c1" />
        <route id="leftTurn1" edges="4c c2" />
        <route id="leftTurn2" edges="3c c1" />
        <route id="rightTurn1" edges="2c c4" />
        <route id="rightTurn2" edges="4c c1" />
        <route id="rightTurn3" edges="1c c3" />
        <route id="rightTurn4" edges="3c c2" />
        <route id="uTurn1" edges="1c c1" />
        <route id="uTurn2" edges="2c c2" />
        
    <vehicle id="right_0" type="passenger" route="right" depart="0" departLane="4" />
    <vehicle id="right_1" type="passenger" route="right" depart="0" departLane="3" />
    <vehicle id="right_2" type="passenger" route="right" depart="0" departLane="1" />
    <vehicle id="left_3" type="passenger" route="left" depart="0" departLane="3" />
    <vehicle id="left_4" type="passenger" route="left" depart="0" departLane="1" />
    <vehicle id="left_5" type="passenger" route="left" depart="0" departLane="3" />
    <vehicle id="leftTurn1_6" type="truck" route="leftTurn1" depart="0" departLane="1" />
    <vehicle id="leftTurn2_7" type="passenger" route="leftTurn2" depart="0" departLane="2" />
    <vehicle id="right_8" type="passenger" route="right" depart="1" departLane="1" />
    <vehicle id="right_9" type="passenger" route="right" depart="1" departLane="3" />
    <vehicle id="left_10" type="passenger" route="left" depart="1" departLane="2" />
    <vehicle id="left_11" type="passenger" route="left" depart="1" departLane="2" />
    <vehicle id="up_12" type="passenger" route="up" depart="1" departLane="1" />
    <vehicle id="up_13" type="passenger" route="up" depart="1" departLane="1" />
    <vehicle id="up_14" type="passenger" route="up" depart="1" departLane="4" />
    <vehicle id="leftTurn2_15" type="passenger" route="leftTurn2" depart="1" departLane="4" />
    <vehicle id="right_16" type="passenger" route="right" depart="2" departLane="1" />
    <vehicle id="left_17" type="passenger" route="left" depart="2" departLane="2" />
    <vehicle id="left_18" type="passenger" route="left" depart="2" departLane="1" />
    <vehicle id="leftTurn2_19" type="passenger" route="leftTurn2" depart="2" departLane="4" />
    <vehicle id="right_20" type="passenger" route="right" depart="3" departLane="3" />
    <vehicle id="right_21" type="passenger" route="right" depart="3" departLane="4" />
    <vehicle id="left_22" type="passenger" route="left" depart="3" departLane="4" />
    <vehicle id="down_23" type="passenger" route="down" depart="3" departLane="1" />
    <vehicle id="right_24" type="passenger" route="right" depart="4" departLane="1" />
    <vehicle id="right_25" type="passenger" route="right" depart="4" departLane="3" />
    <vehicle id="right_26" type="passenger" route="right" depart="4" departLane="4" />
    <vehicle id="right_27" type="passenger" route="right" depart="4" departLane="4" />
    <vehicle id="left_28" type="passenger" route="left" depart="4" departLane="0" />
    <vehicle id="left_29" type="passenger" route="left" depart="4" departLane="4" />
    <vehicle id="left_30" type="passenger" route="left" depart="4" departLane="4" />
    <vehicle id="left_31" type="passenger" route="left" depart="4" departLane="0" />
    <vehicle id="left_32" type="passenger" route="left" depart="4" departLane="1" />
    <vehicle id="down_33" type="passenger" route="down" depart="4" departLane="3" />
    <vehicle id="right_34" type="passenger" route="right" depart="5" departLane="3" />
    <vehicle id="right_35" type="passenger" route="right" depart="5" departLane="2" />
    <vehicle id="left_36" type="passenger" route="left" depart="5" departLane="4" />
    <vehicle id="left_37" type="passenger" route="left" depart="5" departLane="0" />
    <vehicle id="right_38" type="passenger" route="right" depart="6" departLane="2" />
    <vehicle id="right_39" type="passenger" route="right" depart="6" departLane="1" />
    <vehicle id="left_40" type="passenger" route="left" depart="6" departLane="3" />
    <vehicle id="left_41" type="passenger" route="left" depart="6" departLane="2" />
    <vehicle id="up_42" type="passenger" route="up" depart="6" departLane="0" />
    <vehicle id="leftTurn1_43" type="passenger" route="leftTurn1" depart="6" departLane="0" />
    <vehicle id="right_44" type="passenger" route="right" depart="7" departLane="2" />
    <vehicle id="right_45" type="passenger" route="right" depart="7" departLane="2" />
    <vehicle id="right_46" type="passenger" route="right" depart="8" departLane="4" />
    <vehicle id="right_47" type="passenger" route="right" depart="8" departLane="3" />
    <vehicle id="left_48" type="passenger" route="left" depart="8" departLane="1" />
    <vehicle id="leftTurn2_49" type="passenger" route="leftTurn2" depart="8" departLane="2" />
    <vehicle id="right_50" type="passenger" route="right" depart="9" departLane="4" />
    <vehicle id="right_51" type="passenger" route="right" depart="9" departLane="1" />
    <vehicle id="right_52" type="passenger" route="right" depart="9" departLane="3" />
    <vehicle id="right_53" type="passenger" route="right" depart="9" departLane="1" />
    <vehicle id="leftTurn1_54" type="passenger" route="leftTurn1" depart="9" departLane="4" />
    <vehicle id="right_55" type="passenger" route="right" depart="10" departLane="3" />
    <vehicle id="right_56" type="passenger" route="right" depart="10" departLane="1" />
    <vehicle id="right_57" type="truck" route="right" depart="10" departLane="0" />
    <vehicle id="left_58" type="passenger" route="left" depart="10" departLane="3" />
    <vehicle id="left_59" type="passenger" route="left" depart="10" departLane="0" />
    <vehicle id="left_60" type="passenger" route="left" depart="10" departLane="0" />
    <vehicle id="leftTurn1_61" type="passenger" route="leftTurn1" depart="10" departLane="0" />
    <vehicle id="right_62" type="passenger" route="right" depart="12" departLane="4" />
    <vehicle id="left_63" type="passenger" route="left" depart="12" departLane="3" />
    <vehicle id="left_64" type="passenger" route="left" depart="12" departLane="3" />
    <vehicle id="right_65" type="passenger" route="right" depart="13" departLane="3" />
    <vehicle id="left_66" type="passenger" route="left" depart="13" departLane="2" />
    <vehicle id="left_67" type="passenger" route="left" depart="13" departLane="3" />
    <vehicle id="left_68" type="passenger" route="left" depart="13" departLane="4" />
    <vehicle id="leftTurn2_69" type="passenger" route="leftTurn2" depart="13" departLane="1" />
    <vehicle id="right_70" type="passenger" route="right" depart="14" departLane="2" />
    <vehicle id="left_71" type="passenger" route="left" depart="14" departLane="1" />
    <vehicle id="leftTurn2_72" type="passenger" route="leftTurn2" depart="14" departLane="4" />
    <vehicle id="right_73" type="passenger" route="right" depart="15" departLane="3" />
    <vehicle id="right_74" type="truck" route="right" depart="15" departLane="0" />
    <vehicle id="right_75" type="passenger" route="right" depart="15" departLane="3" />
    <vehicle id="left_76" type="passenger" route="left" depart="15" departLane="1" />
    <vehicle id="leftTurn1_77" type="passenger" route="leftTurn1" depart="15" departLane="0" />
    <vehicle id="right_78" type="passenger" route="right" depart="16" departLane="4" />
    <vehicle id="left_79" type="truck" route="left" depart="16" departLane="0" />
    <vehicle id="left_80" type="passenger" route="left" depart="16" departLane="2" />
    <vehicle id="left_81" type="passenger" route="left" depart="16" departLane="3" />
    <vehicle id="down_82" type="passenger" route="down" depart="16" departLane="4" />
    <vehicle id="right_83" type="truck" route="right" depart="17" departLane="1" />
    <vehicle id="left_84" type="passenger" route="left" depart="17" departLane="1" />
    <vehicle id="right_85" type="passenger" route="right" depart="18" departLane="1" />
    <vehicle id="left_86" type="passenger" route="left" depart="18" departLane="0" />
    <vehicle id="down_87" type="passenger" route="down" depart="18" departLane="2" />
    <vehicle id="right_88" type="passenger" route="right" depart="19" departLane="3" />
    <vehicle id="left_89" type="passenger" route="left" depart="19" departLane="4" />
    <vehicle id="left_90" type="passenger" route="left" depart="19" departLane="3" />
    <vehicle id="left_91" type="passenger" route="left" depart="19" departLane="4" />
    <vehicle id="left_92" type="passenger" route="left" depart="19" departLane="4" />
    <vehicle id="left_93" type="passenger" route="left" depart="19" departLane="0" />
    <vehicle id="up_94" type="passenger" route="up" depart="19" departLane="4" />
    <vehicle id="up_95" type="passenger" route="up" depart="19" departLane="3" />
    <vehicle id="leftTurn1_96" type="passenger" route="leftTurn1" depart="19" departLane="1" />
    <vehicle id="leftTurn2_97" type="passenger" route="leftTurn2" depart="19" departLane="3" />
    <vehicle id="right_98" type="passenger" route="right" depart="20" departLane="0" />
    <vehicle id="left_99" type="passenger" route="left" depart="20" departLane="2" />
    <vehicle id="left_100" type="passenger" route="left" depart="20" departLane="1" />
    <vehicle id="left_101" type="passenger" route="left" depart="20" departLane="2" />
    <vehicle id="leftTurn2_102" type="passenger" route="leftTurn2" depart="20" departLane="2" />
    <vehicle id="right_103" type="passenger" route="right" depart="21" departLane="4" />
    <vehicle id="down_104" type="passenger" route="down" depart="21" departLane="3" />
    <vehicle id="leftTurn1_105" type="passenger" route="leftTurn1" depart="21" departLane="2" />
    <vehicle id="rightTurn1_106" type="passenger" route="rightTurn1" depart="21" departLane="2" />
    <vehicle id="right_107" type="passenger" route="right" depart="22" departLane="3" />
    <vehicle id="left_108" type="passenger" route="left" depart="22" departLane="4" />
    <vehicle id="right_109" type="passenger" route="right" depart="23" departLane="4" />
    <vehicle id="left_110" type="passenger" route="left" depart="23" departLane="3" />
    <vehicle id="down_111" type="passenger" route="down" depart="23" departLane="1" />
    <vehicle id="right_112" type="passenger" route="right" depart="24" departLane="3" />
    <vehicle id="right_113" type="passenger" route="right" depart="25" departLane="0" />
    <vehicle id="right_114" type="passenger" route="right" depart="25" departLane="2" />
    <vehicle id="left_115" type="passenger" route="left" depart="25" departLane="2" />
    <vehicle id="up_116" type="passenger" route="up" depart="25" departLane="0" />
    <vehicle id="leftTurn1_117" type="passenger" route="leftTurn1" depart="25" departLane="4" />
    <vehicle id="leftTurn1_118" type="passenger" route="leftTurn1" depart="25" departLane="4" />
    <vehicle id="leftTurn2_119" type="passenger" route="leftTurn2" depart="25" departLane="1" />
    <vehicle id="right_120" type="passenger" route="right" depart="26" departLane="4" />
    <vehicle id="left_121" type="passenger" route="left" depart="26" departLane="0" />
    <vehicle id="left_122" type="passenger" route="left" depart="26" departLane="0" />
    <vehicle id="up_123" type="passenger" route="up" depart="26" departLane="1" />
    <vehicle id="up_124" type="passenger" route="up" depart="26" departLane="3" />
    <vehicle id="left_125" type="passenger" route="left" depart="27" departLane="4" />
    <vehicle id="right_126" type="passenger" route="right" depart="28" departLane="1" />
    <vehicle id="right_127" type="passenger" route="right" depart="28" departLane="4" />
    <vehicle id="left_128" type="passenger" route="left" depart="28" departLane="4" />
    <vehicle id="leftTurn2_129" type="passenger" route="leftTurn2" depart="28" departLane="2" />
    <vehicle id="rightTurn2_130" type="passenger" route="rightTurn2" depart="28" departLane="4" />
    <vehicle id="right_131" type="passenger" route="right" depart="29" departLane="4" />
    <vehicle id="right_132" type="passenger" route="right" depart="29" departLane="3" />
    <vehicle id="left_133" type="passenger" route="left" depart="29" departLane="1" />
    <vehicle id="left_134" type="passenger" route="left" depart="29" departLane="0" />
    <vehicle id="left_135" type="truck" route="left" depart="29" departLane="2" />
    <vehicle id="up_136" type="passenger" route="up" depart="29" departLane="0" />
    <vehicle id="up_137" type="passenger" route="up" depart="29" departLane="4" />
    <vehicle id="leftTurn1_138" type="passenger" route="leftTurn1" depart="29" departLane="2" />
    <vehicle id="leftTurn1_139" type="passenger" route="leftTurn1" depart="29" departLane="3" />
    <vehicle id="right_140" type="passenger" route="right" depart="30" departLane="2" />
    <vehicle id="right_141" type="passenger" route="right" depart="30" departLane="3" />
    <vehicle id="left_142" type="passenger" route="left" depart="30" departLane="4" />
    <vehicle id="left_143" type="truck" route="left" depart="30" departLane="3" />
    <vehicle id="left_144" type="passenger" route="left" depart="30" departLane="1" />
    <vehicle id="leftTurn2_145" type="passenger" route="leftTurn2" depart="30" departLane="3" />
    <vehicle id="left_146" type="truck" route="left" depart="31" departLane="2" />
    <vehicle id="left_147" type="passenger" route="left" depart="31" departLane="4" />
    <vehicle id="down_148" type="passenger" route="down" depart="31" departLane="1" />
    <vehicle id="leftTurn2_149" type="passenger" route="leftTurn2" depart="31" departLane="1" />
    <vehicle id="right_150" type="passenger" route="right" depart="32" departLane="1" />
    <vehicle id="left_151" type="passenger" route="left" depart="32" departLane="1" />
    <vehicle id="down_152" type="passenger" route="down" depart="32" departLane="2" />
    <vehicle id="right_153" type="passenger" route="right" depart="33" departLane="0" />
    <vehicle id="left_154" type="passenger" route="left" depart="33" departLane="1" />
    <vehicle id="leftTurn2_155" type="passenger" route="leftTurn2" depart="33" departLane="1" />
    <vehicle id="right_156" type="passenger" route="right" depart="34" departLane="1" />
    <vehicle id="right_157" type="passenger" route="right" depart="34" departLane="4" />
    <vehicle id="left_158" type="passenger" route="left" depart="34" departLane="1" />
    <vehicle id="left_159" type="passenger" route="left" depart="34" departLane="0" />
    <vehicle id="left_160" type="passenger" route="left" depart="34" departLane="3" />
    <vehicle id="left_161" type="passenger" route="left" depart="34" departLane="1" />
    <vehicle id="left_162" type="passenger" route="left" depart="34" departLane="1" />
    <vehicle id="left_163" type="passenger" route="left" depart="34" departLane="3" />
    <vehicle id="right_164" type="passenger" route="right" depart="35" departLane="2" />
    <vehicle id="left_165" type="passenger" route="left" depart="35" departLane="1" />
    <vehicle id="left_166" type="passenger" route="left" depart="35" departLane="1" />
    <vehicle id="up_167" type="passenger" route="up" depart="35" departLane="3" />
    <vehicle id="up_168" type="passenger" route="up" depart="35" departLane="3" />
    <vehicle id="up_169" type="passenger" route="up" depart="35" departLane="3" />
    <vehicle id="up_170" type="passenger" route="up" depart="35" departLane="0" />
    <vehicle id="leftTurn1_171" type="passenger" route="leftTurn1" depart="35" departLane="3" />
    <vehicle id="leftTurn2_172" type="passenger" route="leftTurn2" depart="35" departLane="2" />
    <vehicle id="right_173" type="passenger" route="right" depart="36" departLane="4" />
    <vehicle id="left_174" type="passenger" route="left" depart="36" departLane="0" />
    <vehicle id="left_175" type="passenger" route="left" depart="37" departLane="4" />
    <vehicle id="left_176" type="passenger" route="left" depart="37" departLane="4" />
    <vehicle id="leftTurn2_177" type="passenger" route="leftTurn2" depart="37" departLane="2" />
    <vehicle id="right_178" type="truck" route="right" depart="38" departLane="1" />
    <vehicle id="right_179" type="passenger" route="right" depart="38" departLane="3" />
    <vehicle id="down_180" type="passenger" route="down" depart="38" departLane="0" />
    <vehicle id="up_181" type="passenger" route="up" depart="38" departLane="3" />
    <vehicle id="up_182" type="passenger" route="up" depart="38" departLane="3" />
    <vehicle id="right_183" type="passenger" route="right" depart="39" departLane="2" />
    <vehicle id="right_184" type="passenger" route="right" depart="39" departLane="1" />
    <vehicle id="leftTurn2_185" type="passenger" route="leftTurn2" depart="39" departLane="4" />
    <vehicle id="leftTurn2_186" type="passenger" route="leftTurn2" depart="39" departLane="0" />
    <vehicle id="right_187" type="passenger" route="right" depart="40" departLane="0" />
    <vehicle id="left_188" type="passenger" route="left" depart="40" departLane="3" />
    <vehicle id="left_189" type="passenger" route="left" depart="40" departLane="1" />
    <vehicle id="left_190" type="passenger" route="left" depart="40" departLane="2" />
    <vehicle id="left_191" type="truck" route="left" depart="40" departLane="3" />
    <vehicle id="left_192" type="passenger" route="left" depart="40" departLane="1" />
    <vehicle id="up_193" type="passenger" route="up" depart="40" departLane="1" />
    <vehicle id="up_194" type="passenger" route="up" depart="40" departLane="1" />
    <vehicle id="right_195" type="passenger" route="right" depart="41" departLane="1" />
    <vehicle id="right_196" type="passenger" route="right" depart="41" departLane="4" />
    <vehicle id="leftTurn1_197" type="passenger" route="leftTurn1" depart="41" departLane="3" />
    <vehicle id="left_198" type="passenger" route="left" depart="42" departLane="0" />
    <vehicle id="up_199" type="passenger" route="up" depart="42" departLane="0" />
    <vehicle id="left_200" type="passenger" route="left" depart="43" departLane="0" />
    <vehicle id="left_201" type="passenger" route="left" depart="43" departLane="1" />
    <vehicle id="up_202" type="passenger" route="up" depart="43" departLane="3" />
    <vehicle id="up_203" type="passenger" route="up" depart="43" departLane="3" />
    <vehicle id="right_204" type="passenger" route="right" depart="44" departLane="1" />
    <vehicle id="left_205" type="passenger" route="left" depart="44" departLane="0" />
    <vehicle id="up_206" type="passenger" route="up" depart="44" departLane="0" />
    <vehicle id="leftTurn1_207" type="passenger" route="leftTurn1" depart="44" departLane="4" />
    <vehicle id="right_208" type="passenger" route="right" depart="45" departLane="2" />
    <vehicle id="right_209" type="passenger" route="right" depart="45" departLane="3" />
    <vehicle id="left_210" type="passenger" route="left" depart="45" departLane="3" />
    <vehicle id="left_211" type="passenger" route="left" depart="45" departLane="2" />
    <vehicle id="left_212" type="passenger" route="left" depart="45" departLane="1" />
    <vehicle id="leftTurn2_213" type="passenger" route="leftTurn2" depart="45" departLane="1" />
    <vehicle id="right_214" type="passenger" route="right" depart="46" departLane="0" />
    <vehicle id="right_215" type="passenger" route="right" depart="46" departLane="0" />
    <vehicle id="left_216" type="passenger" route="left" depart="46" departLane="2" />
    <vehicle id="left_217" type="passenger" route="left" depart="46" departLane="0" />
    <vehicle id="left_218" type="passenger" route="left" depart="46" departLane="2" />
    <vehicle id="up_219" type="passenger" route="up" depart="46" departLane="2" />
    <vehicle id="leftTurn2_220" type="passenger" route="leftTurn2" depart="46" departLane="4" />
    <vehicle id="left_221" type="passenger" route="left" depart="47" departLane="4" />
    <vehicle id="left_222" type="passenger" route="left" depart="47" departLane="4" />
    <vehicle id="left_223" type="passenger" route="left" depart="47" departLane="0" />
    <vehicle id="up_224" type="passenger" route="up" depart="47" departLane="4" />
    <vehicle id="up_225" type="passenger" route="up" depart="47" departLane="1" />
    <vehicle id="up_226" type="passenger" route="up" depart="47" departLane="1" />
    <vehicle id="left_227" type="passenger" route="left" depart="48" departLane="3" />
    <vehicle id="left_228" type="passenger" route="left" depart="48" departLane="0" />
    <vehicle id="up_229" type="passenger" route="up" depart="48" departLane="0" />
    <vehicle id="right_230" type="passenger" route="right" depart="49" departLane="3" />
    <vehicle id="right_231" type="passenger" route="right" depart="49" departLane="1" />
    <vehicle id="left_232" type="passenger" route="left" depart="49" departLane="1" />
    <vehicle id="left_233" type="passenger" route="left" depart="49" departLane="4" />
    <vehicle id="leftTurn1_234" type="passenger" route="leftTurn1" depart="49" departLane="1" />
    <vehicle id="leftTurn2_235" type="passenger" route="leftTurn2" depart="49" departLane="3" />
    <vehicle id="emergency_236" type="emergency" route="left" depart="50" departLane="3" />
    <vehicle id="right_237" type="passenger" route="right" depart="50" departLane="4" />
    <vehicle id="right_238" type="passenger" route="right" depart="50" departLane="3" />
    <vehicle id="left_239" type="passenger" route="left" depart="50" departLane="1" />
    <vehicle id="left_240" type="passenger" route="left" depart="50" departLane="2" />
    <vehicle id="down_241" type="passenger" route="down" depart="50" departLane="4" />
    <vehicle id="up_242" type="passenger" route="up" depart="50" departLane="4" />
    <vehicle id="up_243" type="passenger" route="up" depart="50" departLane="2" />
    <vehicle id="leftTurn2_244" type="passenger" route="leftTurn2" depart="50" departLane="2" />
    <vehicle id="down_245" type="passenger" route="down" depart="51" departLane="3" />
    <vehicle id="leftTurn2_246" type="truck" route="leftTurn2" depart="51" departLane="2" />
    <vehicle id="right_247" type="passenger" route="right" depart="52" departLane="4" />
    <vehicle id="right_248" type="passenger" route="right" depart="52" departLane="4" />
    <vehicle id="left_249" type="passenger" route="left" depart="52" departLane="0" />
    <vehicle id="left_250" type="passenger" route="left" depart="52" departLane="0" />
    <vehicle id="up_251" type="passenger" route="up" depart="52" departLane="0" />
    <vehicle id="leftTurn2_252" type="passenger" route="leftTurn2" depart="52" departLane="3" />
    <vehicle id="leftTurn2_253" type="passenger" route="leftTurn2" depart="52" departLane="3" />
    <vehicle id="right_254" type="passenger" route="right" depart="53" departLane="0" />
    <vehicle id="up_255" type="passenger" route="up" depart="53" departLane="2" />
    <vehicle id="leftTurn1_256" type="passenger" route="leftTurn1" depart="53" departLane="3" />
    <vehicle id="right_257" type="passenger" route="right" depart="54" departLane="1" />
    <vehicle id="right_258" type="passenger" route="right" depart="54" departLane="3" />
    <vehicle id="up_259" type="passenger" route="up" depart="54" departLane="4" />
    <vehicle id="up_260" type="passenger" route="up" depart="54" departLane="1" />
    <vehicle id="up_261" type="passenger" route="up" depart="54" departLane="3" />
    <vehicle id="right_262" type="passenger" route="right" depart="55" departLane="4" />
    <vehicle id="left_263" type="passenger" route="left" depart="55" departLane="3" />
    <vehicle id="left_264" type="truck" route="left" depart="55" departLane="1" />
    <vehicle id="left_265" type="passenger" route="left" depart="55" departLane="4" />
    <vehicle id="left_266" type="passenger" route="left" depart="55" departLane="1" />
    <vehicle id="rightTurn2_267" type="passenger" route="rightTurn2" depart="55" departLane="4" />
    <vehicle id="rightTurn4_268" type="passenger" route="rightTurn4" depart="55" departLane="0" />
    <vehicle id="right_269" type="passenger" route="right" depart="56" departLane="3" />
    <vehicle id="left_270" type="passenger" route="left" depart="56" departLane="1" />
    <vehicle id="leftTurn1_271" type="passenger" route="leftTurn1" depart="56" departLane="3" />
    <vehicle id="leftTurn2_272" type="passenger" route="leftTurn2" depart="56" departLane="1" />
    <vehicle id="right_273" type="passenger" route="right" depart="57" departLane="1" />
    <vehicle id="down_274" type="passenger" route="down" depart="57" departLane="2" />
    <vehicle id="up_275" type="passenger" route="up" depart="57" departLane="1" />
    <vehicle id="up_276" type="passenger" route="up" depart="57" departLane="3" />
    <vehicle id="right_277" type="passenger" route="right" depart="58" departLane="0" />
    <vehicle id="right_278" type="passenger" route="right" depart="58" departLane="2" />
    <vehicle id="right_279" type="passenger" route="right" depart="58" departLane="4" />
    <vehicle id="right_280" type="passenger" route="right" depart="58" departLane="2" />
    <vehicle id="right_281" type="passenger" route="right" depart="58" departLane="0" />
    <vehicle id="left_282" type="passenger" route="left" depart="58" departLane="3" />
    <vehicle id="left_283" type="passenger" route="left" depart="58" departLane="0" />
    <vehicle id="left_284" type="passenger" route="left" depart="58" departLane="1" />
    <vehicle id="down_285" type="passenger" route="down" depart="58" departLane="0" />
    <vehicle id="leftTurn1_286" type="passenger" route="leftTurn1" depart="58" departLane="4" />
    <vehicle id="leftTurn2_287" type="passenger" route="leftTurn2" depart="58" departLane="0" />
    <vehicle id="right_288" type="passenger" route="right" depart="59" departLane="4" />
    <vehicle id="right_289" type="passenger" route="right" depart="59" departLane="3" />
    <vehicle id="right_290" type="passenger" route="right" depart="59" departLane="0" />
    <vehicle id="right_291" type="passenger" route="right" depart="59" departLane="0" />
    <vehicle id="left_292" type="passenger" route="left" depart="59" departLane="3" />
    <vehicle id="down_293" type="passenger" route="down" depart="59" departLane="3" />
    <vehicle id="leftTurn1_294" type="truck" route="leftTurn1" depart="59" departLane="3" />
    <vehicle id="leftTurn2_295" type="passenger" route="leftTurn2" depart="59" departLane="4" />
    <vehicle id="leftTurn2_296" type="passenger" route="leftTurn2" depart="59" departLane="3" />
    <vehicle id="right_297" type="passenger" route="right" depart="60" departLane="1" />
    <vehicle id="down_298" type="passenger" route="down" depart="60" departLane="1" />
    <vehicle id="up_299" type="passenger" route="up" depart="60" departLane="4" />
    <vehicle id="leftTurn2_300" type="truck" route="leftTurn2" depart="60" departLane="2" />
    <vehicle id="right_301" type="passenger" route="right" depart="61" departLane="4" />
    <vehicle id="right_302" type="passenger" route="right" depart="61" departLane="4" />
    <vehicle id="left_303" type="passenger" route="left" depart="61" departLane="4" />
    <vehicle id="left_304" type="passenger" route="left" depart="61" departLane="3" />
    <vehicle id="left_305" type="passenger" route="left" depart="61" departLane="1" />
    <vehicle id="left_306" type="passenger" route="left" depart="61" departLane="4" />
    <vehicle id="down_307" type="passenger" route="down" depart="61" departLane="0" />
    <vehicle id="right_308" type="passenger" route="right" depart="62" departLane="0" />
    <vehicle id="right_309" type="truck" route="right" depart="62" departLane="3" />
    <vehicle id="left_310" type="passenger" route="left" depart="62" departLane="2" />
    <vehicle id="left_311" type="passenger" route="left" depart="62" departLane="1" />
    <vehicle id="down_312" type="passenger" route="down" depart="62" departLane="3" />
    <vehicle id="right_313" type="passenger" route="right" depart="63" departLane="4" />
    <vehicle id="left_314" type="passenger" route="left" depart="63" departLane="0" />
    <vehicle id="up_315" type="passenger" route="up" depart="63" departLane="3" />
    <vehicle id="leftTurn1_316" type="passenger" route="leftTurn1" depart="63" departLane="2" />
    <vehicle id="right_317" type="passenger" route="right" depart="64" departLane="2" />
    <vehicle id="down_318" type="passenger" route="down" depart="64" departLane="1" />
    <vehicle id="leftTurn2_319" type="passenger" route="leftTurn2" depart="64" departLane="1" />
    <vehicle id="left_320" type="passenger" route="left" depart="65" departLane="1" />
    <vehicle id="left_321" type="passenger" route="left" depart="65" departLane="3" />
    <vehicle id="left_322" type="passenger" route="left" depart="65" departLane="2" />
    <vehicle id="left_323" type="passenger" route="left" depart="65" departLane="4" />
    <vehicle id="up_324" type="passenger" route="up" depart="65" departLane="2" />
    <vehicle id="up_325" type="passenger" route="up" depart="65" departLane="2" />
    <vehicle id="leftTurn2_326" type="passenger" route="leftTurn2" depart="65" departLane="0" />