<routes>
        <vType id="passenger" accel="5" decel="10" sigma="0.5" length="5" minGap="2" departSpeed="16.67" maxSpeed="16.67" guiShape="passenger" color="grey"/>
        <vType id="emergency" vClass="emergency" accel="5" decel="10" sigma="0.5" length="7" minGap="2" departSpeed="16.67" maxSpeed="35" color="red"/>
        <vType id="bus" accel="5" decel="10" sigma="0.5" length="12" minGap="2" departSpeed="12" maxSpeed="12" guiShape="bus" color="0,0,255"/>
        <vType id="truck" accel="5" decel="10" sigma="0.5" length="10" minGap="2" departSpeed="10" maxSpeed="10" guiShape="truck" color="0,255,0"/>
        
        <route id="right" edges="3c c4" />
        <route id="left" edges="4c c3" />
        <route id="down" edges="1c c2" />
        <route id="up" edges="2c c1" />
        <route id="leftTurn1" edges="4c c2" />
        <route id="leftTurn2" edges="3c c1" />
        <route id="rightTurn1" edges="2c c4" />
        <route id="rightTurn2" edges="4c c1" />
        <route id="rightTurn3" edges="1c c3" />
        <route id="rightTurn4" edges="3c c2" />
        <route id="uTurn1" edges="1c c1" />
        <route id="uTurn2" edges="2c c2" />
        
    <vehicle id="left_0" type="passenger" route="left" depart="0" departLane="4" />
    <vehicle id="left_1" type="passenger" route="left" depart="0" departLane="3" />
    <vehicle id="left_2" type="passenger" route="left" depart="0" departLane="1" />
    <vehicle id="left_3" type="passenger" route="left" depart="0" departLane="3" />
    <vehicle id="leftTurn2_4" type="passenger" route="leftTurn2" depart="0" departLane="1" />
    <vehicle id="right_5" type="passenger" route="right" depart="1" departLane="3" />
    <vehicle id="down_6" type="passenger" route="down" depart="1" departLane="1" />
    <vehicle id="up_7" type="passenger" route="up" depart="1" departLane="2" />
    <vehicle id="up_8" type="passenger" route="up" depart="1" departLane="1" />
    <vehicle id="leftTurn2_9" type="passenger" route="leftTurn2" depart="1" departLane="3" />
    <vehicle id="leftTurn2_10" type="passenger" route="leftTurn2" depart="1" departLane="2" />
    <vehicle id="right_11" type="passenger" route="right" depart="2" departLane="2" />
    <vehicle id="left_12" type="passenger" route="left" depart="2" departLane="1" />
    <vehicle id="up_13" type="passenger" route="up" depart="3" departLane="1" />
    <vehicle id="leftTurn1_14" type="passenger" route="leftTurn1" depart="3" departLane="4" />
    <vehicle id="right_15" type="bus" route="right" depart="4" departLane="4" />
    <vehicle id="left_16" type="passenger" route="left" depart="4" departLane="1" />
    <vehicle id="left_17" type="passenger" route="left" depart="4" departLane="2" />
    <vehicle id="leftTurn2_18" type="passenger" route="leftTurn2" depart="4" departLane="1" />
    <vehicle id="left_19" type="passenger" route="left" depart="5" departLane="4" />
    <vehicle id="left_20" type="passenger" route="left" depart="5" departLane="3" />
    <vehicle id="up_21" type="passenger" route="up" depart="5" departLane="4" />
    <vehicle id="up_22" type="passenger" route="up" depart="5" departLane="4" />
    <vehicle id="leftTurn2_23" type="truck" route="leftTurn2" depart="5" departLane="1" />
    <vehicle id="right_24" type="passenger" route="right" depart="6" departLane="1" />
    <vehicle id="left_25" type="passenger" route="left" depart="6" departLane="3" />
    <vehicle id="down_26" type="passenger" route="down" depart="6" departLane="4" />
    <vehicle id="up_27" type="passenger" route="up" depart="6" departLane="4" />
    <vehicle id="leftTurn1_28" type="passenger" route="leftTurn1" depart="6" departLane="0" />
    <vehicle id="leftTurn2_29" type="passenger" route="leftTurn2" depart="6" departLane="4" />
    <vehicle id="left_30" type="passenger" route="left" depart="7" departLane="4" />
    <vehicle id="leftTurn1_31" type="passenger" route="leftTurn1" depart="7" departLane="0" />
    <vehicle id="leftTurn2_32" type="passenger" route="leftTurn2" depart="7" departLane="1" />
    <vehicle id="right_33" type="truck" route="right" depart="8" departLane="3" />
    <vehicle id="right_34" type="passenger" route="right" depart="8" departLane="3" />
    <vehicle id="left_35" type="passenger" route="left" depart="8" departLane="2" />
    <vehicle id="left_36" type="passenger" route="left" depart="8" departLane="4" />
    <vehicle id="left_37" type="passenger" route="left" depart="8" departLane="0" />
    <vehicle id="up_38" type="passenger" route="up" depart="8" departLane="2" />
    <vehicle id="down_39" type="passenger" route="down" depart="9" departLane="1" />
    <vehicle id="leftTurn1_40" type="passenger" route="leftTurn1" depart="9" departLane="3" />
    <vehicle id="right_41" type="passenger" route="right" depart="10" departLane="2" />
    <vehicle id="left_42" type="passenger" route="left" depart="10" departLane="0" />
    <vehicle id="left_43" type="passenger" route="left" depart="10" departLane="0" />
    <vehicle id="leftTurn2_44" type="passenger" route="leftTurn2" depart="10" departLane="2" />
    <vehicle id="leftTurn2_45" type="passenger" route="leftTurn2" depart="10" departLane="2" />
    <vehicle id="right_46" type="passenger" route="right" depart="11" departLane="4" />
    <vehicle id="right_47" type="passenger" route="right" depart="11" departLane="3" />
    <vehicle id="left_48" type="passenger" route="left" depart="11" departLane="1" />
    <vehicle id="left_49" type="passenger" route="left" depart="11" departLane="2" />
    <vehicle id="leftTurn2_50" type="passenger" route="leftTurn2" depart="11" departLane="4" />
    <vehicle id="right_51" type="passenger" route="right" depart="12" departLane="1" />
    <vehicle id="right_52" type="passenger" route="right" depart="12" departLane="3" />
    <vehicle id="left_53" type="passenger" route="left" depart="12" departLane="1" />
    <vehicle id="left_54" type="passenger" route="left" depart="12" departLane="4" />
    <vehicle id="up_55" type="passenger" route="up" depart="12" departLane="3" />
    <vehicle id="up_56" type="passenger" route="up" depart="12" departLane="1" />
    <vehicle id="right_57" type="truck" route="right" depart="13" departLane="0" />
    <vehicle id="right_58" type="passenger" route="right" depart="13" departLane="3" />
    <vehicle id="left_59" type="passenger" route="left" depart="13" departLane="0" />
    <vehicle id="left_60" type="passenger" route="left" depart="13" departLane="0" />
    <vehicle id="left_61" type="passenger" route="left" depart="13" departLane="0" />
    <vehicle id="up_62" type="passenger" route="up" depart="13" departLane="4" />
    <vehicle id="up_63" type="passenger" route="up" depart="13" departLane="3" />
    <vehicle id="leftTurn2_64" type="passenger" route="leftTurn2" depart="13" departLane="3" />
    <vehicle id="right_65" type="passenger" route="right" depart="14" departLane="3" />
    <vehicle id="right_66" type="passenger" route="right" depart="14" departLane="2" />
    <vehicle id="right_67" type="passenger" route="right" depart="14" departLane="3" />
    <vehicle id="right_68" type="passenger" route="right" depart="14" departLane="4" />
    <vehicle id="left_69" type="passenger" route="left" depart="14" departLane="1" />
    <vehicle id="down_70" type="passenger" route="down" depart="14" departLane="2" />
    <vehicle id="leftTurn1_71" type="passenger" route="leftTurn1" depart="14" departLane="1" />
    <vehicle id="left_72" type="passenger" route="left" depart="15" departLane="4" />
    <vehicle id="left_73" type="passenger" route="left" depart="15" departLane="3" />
    <vehicle id="up_74" type="passenger" route="up" depart="15" departLane="0" />
    <vehicle id="leftTurn2_75" type="passenger" route="leftTurn2" depart="15" departLane="3" />
    <vehicle id="leftTurn2_76" type="passenger" route="leftTurn2" depart="15" departLane="1" />
    <vehicle id="right_77" type="passenger" route="right" depart="16" departLane="0" />
    <vehicle id="right_78" type="passenger" route="right" depart="16" departLane="4" />
    <vehicle id="right_79" type="truck" route="right" depart="16" departLane="0" />
    <vehicle id="left_80" type="passenger" route="left" depart="16" departLane="2" />
    <vehicle id="up_81" type="passenger" route="up" depart="16" departLane="3" />
    <vehicle id="right_82" type="passenger" route="right" depart="17" departLane="4" />
    <vehicle id="left_83" type="truck" route="left" depart="17" departLane="1" />
    <vehicle id="right_84" type="passenger" route="right" depart="18" departLane="1" />
    <vehicle id="left_85" type="passenger" route="left" depart="18" departLane="1" />
    <vehicle id="leftTurn2_86" type="passenger" route="leftTurn2" depart="18" departLane="0" />
    <vehicle id="right_87" type="passenger" route="right" depart="19" departLane="2" />
    <vehicle id="right_88" type="passenger" route="right" depart="19" departLane="3" />
    <vehicle id="left_89" type="passenger" route="left" depart="19" departLane="4" />
    <vehicle id="up_90" type="passenger" route="up" depart="19" departLane="3" />
    <vehicle id="up_91" type="passenger" route="up" depart="19" departLane="4" />
    <vehicle id="right_92" type="passenger" route="right" depart="20" departLane="4" />
    <vehicle id="right_93" type="passenger" route="right" depart="20" departLane="0" />
    <vehicle id="right_94" type="passenger" route="right" depart="20" departLane="4" />
    <vehicle id="left_95" type="passenger" route="left" depart="20" departLane="3" />
    <vehicle id="down_96" type="passenger" route="down" depart="20" departLane="1" />
    <vehicle id="right_97" type="passenger" route="right" depart="21" departLane="3" />
    <vehicle id="right_98" type="passenger" route="right" depart="21" departLane="0" />
    <vehicle id="right_99" type="passenger" route="right" depart="21" departLane="2" />
    <vehicle id="left_100" type="passenger" route="left" depart="21" departLane="1" />
    <vehicle id="left_101" type="passenger" route="left" depart="21" departLane="2" />
    <vehicle id="up_102" type="passenger" route="up" depart="21" departLane="2" />
    <vehicle id="up_103" type="passenger" route="up" depart="21" departLane="4" />
    <vehicle id="right_104" type="passenger" route="right" depart="22" departLane="3" />
    <vehicle id="right_105" type="passenger" route="right" depart="22" departLane="2" />
    <vehicle id="right_106" type="passenger" route="right" depart="22" departLane="2" />
    <vehicle id="right_107" type="passenger" route="right" depart="22" departLane="3" />
    <vehicle id="left_108" type="passenger" route="left" depart="22" departLane="4" />
    <vehicle id="left_109" type="passenger" route="left" depart="22" departLane="4" />
    <vehicle id="left_110" type="passenger" route="left" depart="22" departLane="3" />
    <vehicle id="up_111" type="passenger" route="up" depart="22" departLane="1" />
    <vehicle id="up_112" type="passenger" route="up" depart="22" departLane="3" />
    <vehicle id="leftTurn1_113" type="passenger" route="leftTurn1" depart="22" departLane="0" />
    <vehicle id="leftTurn2_114" type="passenger" route="leftTurn2" depart="22" departLane="2" />
    <vehicle id="right_115" type="passenger" route="right" depart="23" departLane="2" />
    <vehicle id="right_116" type="passenger" route="right" depart="23" departLane="0" />
    <vehicle id="left_117" type="passenger" route="left" depart="23" departLane="4" />
    <vehicle id="down_118" type="passenger" route="down" depart="23" departLane="4" />
    <vehicle id="up_119" type="passenger" route="up" depart="23" departLane="1" />
    <vehicle id="leftTurn2_120" type="passenger" route="leftTurn2" depart="23" departLane="4" />
    <vehicle id="right_121" type="passenger" route="right" depart="24" departLane="0" />
    <vehicle id="right_122" type="truck" route="right" depart="24" departLane="0" />
    <vehicle id="right_123" type="passenger" route="right" depart="24" departLane="1" />
    <vehicle id="right_124" type="passenger" route="right" depart="24" departLane="3" />
    <vehicle id="left_125" type="passenger" route="left" depart="25" departLane="4" />
    <vehicle id="up_126" type="passenger" route="up" depart="25" departLane="1" />
    <vehicle id="leftTurn1_127" type="passenger" route="leftTurn1" depart="25" departLane="4" />
    <vehicle id="leftTurn2_128" type="passenger" route="leftTurn2" depart="25" departLane="4" />
    <vehicle id="left_129" type="passenger" route="left" depart="26" departLane="2" />
    <vehicle id="left_130" type="passenger" route="left" depart="26" departLane="4" />
    <vehicle id="left_131" type="passenger" route="left" depart="26" departLane="4" />
    <vehicle id="left_132" type="passenger" route="left" depart="26" departLane="3" />
    <vehicle id="down_133" type="passenger" route="down" depart="26" departLane="1" />
    <vehicle id="down_134" type="passenger" route="down" depart="26" departLane="0" />
    <vehicle id="up_135" type="truck" route="up" depart="26" departLane="2" />
    <vehicle id="left_136" type="passenger" route="left" depart="27" departLane="0" />
    <vehicle id="up_137" type="passenger" route="up" depart="27" departLane="4" />
    <vehicle id="leftTurn1_138" type="passenger" route="leftTurn1" depart="27" departLane="2" />
    <vehicle id="leftTurn2_139" type="passenger" route="leftTurn2" depart="27" departLane="3" />
    <vehicle id="right_140" type="passenger" route="right" depart="28" departLane="2" />
    <vehicle id="right_141" type="passenger" route="right" depart="28" departLane="3" />
    <vehicle id="left_142" type="passenger" route="left" depart="28" departLane="4" />
    <vehicle id="left_143" type="truck" route="left" depart="28" departLane="3" />
    <vehicle id="left_144" type="passenger" route="left" depart="28" departLane="1" />
    <vehicle id="down_145" type="passenger" route="down" depart="28" departLane="3" />
    <vehicle id="up_146" type="passenger" route="up" depart="28" departLane="2" />
    <vehicle id="leftTurn2_147" type="passenger" route="leftTurn2" depart="28" departLane="4" />
    <vehicle id="right_148" type="passenger" route="right" depart="29" departLane="1" />
    <vehicle id="right_149" type="passenger" route="right" depart="30" departLane="1" />
    <vehicle id="right_150" type="passenger" route="right" depart="30" departLane="1" />
    <vehicle id="left_151" type="passenger" route="left" depart="30" departLane="1" />
    <vehicle id="right_152" type="passenger" route="right" depart="31" departLane="2" />
    <vehicle id="left_153" type="passenger" route="left" depart="32" departLane="0" />
    <vehicle id="left_154" type="passenger" route="left" depart="32" departLane="1" />
    <vehicle id="right_155" type="passenger" route="right" depart="33" departLane="1" />
    <vehicle id="right_156" type="passenger" route="right" depart="33" departLane="1" />
    <vehicle id="left_157" type="passenger" route="left" depart="33" departLane="4" />
    <vehicle id="up_158" type="passenger" route="up" depart="33" departLane="1" />
    <vehicle id="right_159" type="passenger" route="right" depart="34" departLane="0" />
    <vehicle id="right_160" type="passenger" route="right" depart="34" departLane="3" />
    <vehicle id="left_161" type="passenger" route="left" depart="34" departLane="1" />
    <vehicle id="left_162" type="passenger" route="left" depart="34" departLane="1" />
    <vehicle id="left_163" type="passenger" route="left" depart="34" departLane="3" />
    <vehicle id="up_164" type="passenger" route="up" depart="34" departLane="2" />
    <vehicle id="right_165" type="passenger" route="right" depart="35" departLane="1" />
    <vehicle id="right_166" type="passenger" route="right" depart="35" departLane="1" />
    <vehicle id="left_167" type="passenger" route="left" depart="35" departLane="3" />
    <vehicle id="up_168" type="passenger" route="up" depart="35" departLane="3" />
    <vehicle id="right_169" type="truck" route="right" depart="36" departLane="3" />
    <vehicle id="up_170" type="passenger" route="up" depart="36" departLane="0" />
    <vehicle id="up_171" type="passenger" route="up" depart="36" departLane="3" />
    <vehicle id="leftTurn1_172" type="passenger" route="leftTurn1" depart="36" departLane="2" />
    <vehicle id="right_173" type="passenger" route="right" depart="37" departLane="4" />
    <vehicle id="right_174" type="passenger" route="right" depart="37" departLane="0" />
    <vehicle id="left_175" type="passenger" route="left" depart="37" departLane="4" />
    <vehicle id="left_176" type="passenger" route="left" depart="37" departLane="4" />
    <vehicle id="leftTurn2_177" type="passenger" route="leftTurn2" depart="37" departLane="2" />
    <vehicle id="right_178" type="truck" route="right" depart="38" departLane="1" />
    <vehicle id="right_179" type="passenger" route="right" depart="38" departLane="3" />
    <vehicle id="up_180" type="passenger" route="up" depart="38" departLane="0" />
    <vehicle id="up_181" type="passenger" route="up" depart="38" departLane="3" />
    <vehicle id="up_182" type="passenger" route="up" depart="38" departLane="3" />
    <vehicle id="leftTurn2_183" type="passenger" route="leftTurn2" depart="38" departLane="2" />
    <vehicle id="leftTurn2_184" type="passenger" route="leftTurn2" depart="38" departLane="1" />
    <vehicle id="right_185" type="passenger" route="right" depart="39" departLane="4" />
    <vehicle id="left_186" type="passenger" route="left" depart="39" departLane="0" />
    <vehicle id="left_187" type="passenger" route="left" depart="39" departLane="0" />
    <vehicle id="right_188" type="passenger" route="right" depart="40" departLane="3" />
    <vehicle id="left_189" type="passenger" route="left" depart="40" departLane="1" />
    <vehicle id="left_190" type="passenger" route="left" depart="40" departLane="2" />
    <vehicle id="left_191" type="truck" route="left" depart="40" departLane="3" />
    <vehicle id="right_192" type="passenger" route="right" depart="41" departLane="1" />
    <vehicle id="up_193" type="passenger" route="up" depart="41" departLane="1" />
    <vehicle id="leftTurn1_194" type="passenger" route="leftTurn1" depart="41" departLane="1" />
    <vehicle id="right_195" type="passenger" route="right" depart="42" departLane="1" />
    <vehicle id="right_196" type="passenger" route="right" depart="42" departLane="4" />
    <vehicle id="left_197" type="passenger" route="left" depart="42" departLane="3" />
    <vehicle id="down_198" type="passenger" route="down" depart="42" departLane="0" />
    <vehicle id="leftTurn2_199" type="passenger" route="leftTurn2" depart="42" departLane="0" />
    <vehicle id="right_200" type="passenger" route="right" depart="43" departLane="0" />
    <vehicle id="left_201" type="passenger" route="left" depart="43" departLane="1" />
    <vehicle id="left_202" type="passenger" route="left" depart="43" departLane="3" />
    <vehicle id="left_203" type="passenger" route="left" depart="43" departLane="3" />
    <vehicle id="up_204" type="passenger" route="up" depart="43" departLane="1" />
    <vehicle id="up_205" type="passenger" route="up" depart="43" departLane="0" />
    <vehicle id="up_206" type="passenger" route="up" depart="43" departLane="0" />
    <vehicle id="leftTurn2_207" type="passenger" route="leftTurn2" depart="43" departLane="4" />
    <vehicle id="leftTurn2_208" type="passenger" route="leftTurn2" depart="43" departLane="2" />
    <vehicle id="right_209" type="passenger" route="right" depart="44" departLane="3" />
    <vehicle id="left_210" type="passenger" route="left" depart="44" departLane="3" />
    <vehicle id="left_211" type="passenger" route="left" depart="44" departLane="2" />
    <vehicle id="down_212" type="passenger" route="down" depart="44" departLane="1" />
    <vehicle id="up_213" type="passenger" route="up" depart="44" departLane="1" />
    <vehicle id="up_214" type="passenger" route="up" depart="44" departLane="0" />
    <vehicle id="left_215" type="passenger" route="left" depart="45" departLane="0" />
    <vehicle id="left_216" type="passenger" route="left" depart="45" departLane="2" />
    <vehicle id="leftTurn1_217" type="passenger" route="leftTurn1" depart="45" departLane="0" />
    <vehicle id="right_218" type="passenger" route="right" depart="46" departLane="2" />
    <vehicle id="right_219" type="passenger" route="right" depart="46" departLane="2" />
    <vehicle id="left_220" type="passenger" route="left" depart="46" departLane="4" />
    <vehicle id="left_221" type="passenger" route="left" depart="46" departLane="4" />
    <vehicle id="leftTurn2_222" type="passenger" route="leftTurn2" depart="46" departLane="4" />
    <vehicle id="left_223" type="passenger" route="left" depart="47" departLane="0" />
    <vehicle id="up_224" type="passenger" route="up" depart="47" departLane="4" />
    <vehicle id="leftTurn2_225" type="passenger" route="leftTurn2" depart="47" departLane="1" />
    <vehicle id="left_226" type="passenger" route="left" depart="48" departLane="1" />
    <vehicle id="left_227" type="passenger" route="left" depart="48" departLane="3" />
    <vehicle id="left_228" type="passenger" route="left" depart="48" departLane="0" />
    <vehicle id="up_229" type="passenger" route="up" depart="48" departLane="0" />
    <vehicle id="leftTurn1_230" type="passenger" route="leftTurn1" depart="48" departLane="3" />
    <vehicle id="leftTurn2_231" type="passenger" route="leftTurn2" depart="48" departLane="1" />
    <vehicle id="right_232" type="passenger" route="right" depart="49" departLane="1" />
    <vehicle id="right_233" type="passenger" route="right" depart="49" departLane="4" />
    <vehicle id="up_234" type="passenger" route="up" depart="49" departLane="1" />
    <vehicle id="leftTurn2_235" type="passenger" route="leftTurn2" depart="49" departLane="3" />
    <vehicle id="emergency_236" type="emergency" route="left" depart="50" departLane="3" />
    <vehicle id="left_237" type="passenger" route="left" depart="50" departLane="4" />
    <vehicle id="down_238" type="passenger" route="down" depart="50" departLane="3" />
    <vehicle id="up_239" type="passenger" route="up" depart="50" departLane="1" />
    <vehicle id="up_240" type="passenger" route="up" depart="50" departLane="2" />
    <vehicle id="left_241" type="passenger" route="left" depart="51" departLane="4" />
    <vehicle id="left_242" type="passenger" route="left" depart="51" departLane="4" />
    <vehicle id="left_243" type="passenger" route="left" depart="51" departLane="2" />
    <vehicle id="left_244" type="passenger" route="left" depart="51" departLane="2" />
    <vehicle id="up_245" type="passenger" route="up" depart="51" departLane="3" />
    <vehicle id="right_246" type="truck" route="right" depart="52" departLane="2" />
    <vehicle id="left_247" type="passenger" route="left" depart="52" departLane="4" />
    <vehicle id="left_248" type="passenger" route="left" depart="52" departLane="4" />
    <vehicle id="leftTurn2_249" type="passenger" route="leftTurn2" depart="52" departLane="0" />
    <vehicle id="leftTurn2_250" type="passenger" route="leftTurn2" depart="52" departLane="0" />
    <vehicle id="leftTurn2_251" type="passenger" route="leftTurn2" depart="52" departLane="0" />
    <vehicle id="right_252" type="passenger" route="right" depart="53" departLane="3" />
    <vehicle id="right_253" type="passenger" route="right" depart="53" departLane="3" />
    <vehicle id="left_254" type="passenger" route="left" depart="53" departLane="0" />
    <vehicle id="right_255" type="passenger" route="right" depart="54" departLane="2" />
    <vehicle id="left_256" type="passenger" route="left" depart="54" departLane="3" />
    <vehicle id="up_257" type="passenger" route="up" depart="54" departLane="1" />
    <vehicle id="leftTurn2_258" type="passenger" route="leftTurn2" depart="54" departLane="3" />
    <vehicle id="right_259" type="passenger" route="right" depart="55" departLane="4" />
    <vehicle id="right_260" type="passenger" route="right" depart="55" departLane="1" />
    <vehicle id="left_261" type="passenger" route="left" depart="55" departLane="3" />
    <vehicle id="left_262" type="passenger" route="left" depart="55" departLane="4" />
    <vehicle id="up_263" type="passenger" route="up" depart="55" departLane="3" />
    <vehicle id="leftTurn1_264" type="truck" route="leftTurn1" depart="55" departLane="1" />
    <vehicle id="leftTurn2_265" type="passenger" route="leftTurn2" depart="55" departLane="4" />
    <vehicle id="right_266" type="passenger" route="right" depart="56" departLane="1" />
    <vehicle id="right_267" type="passenger" route="right" depart="56" departLane="4" />
    <vehicle id="left_268" type="passenger" route="left" depart="56" departLane="0" />
    <vehicle id="left_269" type="passenger" route="left" depart="56" departLane="3" />
    <vehicle id="up_270" type="passenger" route="up" depart="56" departLane="1" />
    <vehicle id="leftTurn2_271" type="passenger" route="leftTurn2" depart="56" departLane="3" />
    <vehicle id="right_272" type="passenger" route="right" depart="57" departLane="1" />
    <vehicle id="right_273" type="passenger" route="right" depart="57" departLane="1" />
    <vehicle id="leftTurn2_274" type="passenger" route="leftTurn2" depart="57" departLane="2" />
    <vehicle id="leftTurn2_275" type="passenger" route="leftTurn2" depart="57" departLane="1" />
    <vehicle id="right_276" type="passenger" route="right" depart="58" departLane="3" />
    <vehicle id="left_277" type="passenger" route="left" depart="58" departLane="0" />
    <vehicle id="left_278" type="passenger" route="left" depart="58" departLane="2" />
    <vehicle id="left_279" type="passenger" route="left" depart="58" departLane="4" />
    <vehicle id="left_280" type="passenger" route="left" depart="58" departLane="2" />
    <vehicle id="up_281" type="passenger" route="up" depart="58" departLane="0" />
    <vehicle id="leftTurn1_282" type="passenger" route="leftTurn1" depart="58" departLane="3" />
    <vehicle id="right_283" type="passenger" route="right" depart="59" departLane="0" />
    <vehicle id="right_284" type="passenger" route="right" depart="59" departLane="1" />
    <vehicle id="left_285" type="passenger" route="left" depart="59" departLane="0" />
    <vehicle id="up_286" type="passenger" route="up" depart="59" departLane="4" />
    <vehicle id="right_287" type="passenger" route="right" depart="60" departLane="0" />
    <vehicle id="right_288" type="passenger" route="right" depart="60" departLane="4" />
    <vehicle id="left_289" type="passenger" route="left" depart="60" departLane="3" />
    <vehicle id="up_290" type="passenger" route="up" depart="60" departLane="0" />
    <vehicle id="right_291" type="passenger" route="right" depart="61" departLane="0" />
    <vehicle id="right_292" type="passenger" route="right" depart="61" departLane="3" />
    <vehicle id="left_293" type="passenger" route="left" depart="61" departLane="3" />
    <vehicle id="left_294" type="truck" route="left" depart="61" departLane="3" />
    <vehicle id="up_295" type="passenger" route="up" depart="61" departLane="4" />
    <vehicle id="up_296" type="passenger" route="up" depart="61" departLane="3" />
    <vehicle id="right_297" type="passenger" route="right" depart="62" departLane="1" />
    <vehicle id="right_298" type="passenger" route="right" depart="62" departLane="1" />
    <vehicle id="right_299" type="passenger" route="right" depart="62" departLane="4" />
    <vehicle id="right_300" type="truck" route="right" depart="62" departLane="2" />
    <vehicle id="left_301" type="passenger" route="left" depart="62" departLane="4" />
    <vehicle id="left_302" type="passenger" route="left" depart="62" departLane="4" />
    <vehicle id="left_303" type="passenger" route="left" depart="62" departLane="4" />
    <vehicle id="up_304" type="passenger" route="up" depart="62" departLane="3" />
    <vehicle id="up_305" type="passenger" route="up" depart="62" departLane="1" />
    <vehicle id="right_306" type="passenger" route="right" depart="63" departLane="4" />
    <vehicle id="right_307" type="passenger" route="right" depart="63" departLane="0" />
    <vehicle id="right_308" type="passenger" route="right" depart="63" departLane="0" />
    <vehicle id="left_309" type="truck" route="left" depart="63" departLane="3" />
    <vehicle id="left_310" type="passenger" route="left" depart="63" departLane="2" />
    <vehicle id="down_311" type="passenger" route="down" depart="63" departLane="1" />
    <vehicle id="down_312" type="passenger" route="down" depart="63" departLane="3" />
    <vehicle id="up_313" type="passenger" route="up" depart="63" departLane="4" />
    <vehicle id="leftTurn2_314" type="passenger" route="leftTurn2" depart="63" departLane="0" />
    <vehicle id="right_315" type="passenger" route="right" depart="64" departLane="3" />
    <vehicle id="right_316" type="passenger" route="right" depart="64" departLane="2" />
    <vehicle id="left_317" type="passenger" route="left" depart="64" departLane="2" />
    <vehicle id="left_318" type="passenger" route="left" depart="64" departLane="1" />
    <vehicle id="down_319" type="passenger" route="down" depart="64" departLane="1" />
    <vehicle id="up_320" type="passenger" route="up" depart="64" departLane="1" />
    <vehicle id="up_321" type="passenger" route="up" depart="64" departLane="3" />
    <vehicle id="leftTurn2_322" type="passenger" route="leftTurn2" depart="64" departLane="2" />
    <vehicle id="left_323" type="passenger" route="left" depart="65" departLane="4" />
    <vehicle id="left_324" type="passenger" route="left" depart="65" departLane="2" />
    <vehicle id="left_325" type="passenger" route="left" depart="65" departLane="2" />
    <vehicle id="left_326" type="passenger" route="left" depart="65" departLane="0" />
    <vehicle id="leftTurn2_327" type="passenger" route="leftTurn2" depart="65" departLane="2" />