<routes>
<<<<<<< HEAD
        <vType id="typeWE" accel="0.8" decel="4.5" sigma="0.5" length="5" minGap="2.5" maxSpeed="16.67" guiShape="passenger"/>
        <vType id="typeNS" accel="0.8" decel="4.5" sigma="0.5" length="7" minGap="3" maxSpeed="25" guiShape="bus"/>
=======
        <vType id="passenger" accel="0.8" decel="4.5" sigma="0.5" length="5" minGap="2" maxSpeed="16.67" guiShape="passenger"/>
        <vType id="emergency" accel="0.8" decel="4.5" sigma="0.5" length="7" minGap="3" maxSpeed="25" guiShape="emergency"/>
>>>>>>> 4a276ed4bdda3c267fb4befeef450e80b133ebeb

        <route id="right" edges="3c c4" />
        <route id="left" edges="4c c3" />
        <route id="down" edges="1c c2" />
<<<<<<< HEAD
    <vehicle id="left_0" type="typeWE" route="left" depart="7" />
    <vehicle id="left_1" type="typeWE" route="left" depart="11" />
    <vehicle id="right_2" type="typeWE" route="right" depart="16" />
    <vehicle id="right_3" type="typeWE" route="right" depart="20" />
    <vehicle id="left_4" type="typeWE" route="left" depart="31" />
    <vehicle id="left_5" type="typeWE" route="left" depart="32" />
    <vehicle id="down_6" type="typeNS" route="down" depart="37" color="1,0,0"/>
    <vehicle id="right_7" type="typeWE" route="right" depart="50" />
    <vehicle id="left_8" type="typeWE" route="left" depart="51" />
    <vehicle id="right_9" type="typeWE" route="right" depart="56" />
    <vehicle id="right_10" type="typeWE" route="right" depart="57" />
    <vehicle id="right_11" type="typeWE" route="right" depart="64" />
    <vehicle id="left_12" type="typeWE" route="left" depart="66" />
    <vehicle id="left_13" type="typeWE" route="left" depart="68" />
    <vehicle id="right_14" type="typeWE" route="right" depart="84" />
    <vehicle id="down_15" type="typeNS" route="down" depart="94" color="1,0,0"/>
    <vehicle id="left_16" type="typeWE" route="left" depart="104" />
    <vehicle id="right_17" type="typeWE" route="right" depart="109" />
    <vehicle id="left_18" type="typeWE" route="left" depart="111" />
    <vehicle id="right_19" type="typeWE" route="right" depart="129" />
    <vehicle id="right_20" type="typeWE" route="right" depart="135" />
    <vehicle id="left_21" type="typeWE" route="left" depart="136" />
    <vehicle id="left_22" type="typeWE" route="left" depart="141" />
    <vehicle id="right_23" type="typeWE" route="right" depart="143" />
    <vehicle id="left_24" type="typeWE" route="left" depart="145" />
    <vehicle id="right_25" type="typeWE" route="right" depart="146" />
    <vehicle id="right_26" type="typeWE" route="right" depart="148" />
    <vehicle id="down_27" type="typeNS" route="down" depart="155" color="1,0,0"/>
    <vehicle id="right_28" type="typeWE" route="right" depart="156" />
    <vehicle id="down_29" type="typeNS" route="down" depart="160" color="1,0,0"/>
    <vehicle id="right_30" type="typeWE" route="right" depart="161" />
    <vehicle id="left_31" type="typeWE" route="left" depart="163" />
    <vehicle id="right_32" type="typeWE" route="right" depart="169" />
    <vehicle id="left_33" type="typeWE" route="left" depart="169" />
    <vehicle id="left_34" type="typeWE" route="left" depart="172" />
    <vehicle id="down_35" type="typeNS" route="down" depart="179" color="1,0,0"/>
    <vehicle id="left_36" type="typeWE" route="left" depart="180" />
    <vehicle id="right_37" type="typeWE" route="right" depart="194" />
    <vehicle id="left_38" type="typeWE" route="left" depart="197" />
    <vehicle id="left_39" type="typeWE" route="left" depart="208" />
    <vehicle id="right_40" type="typeWE" route="right" depart="209" />
    <vehicle id="left_41" type="typeWE" route="left" depart="215" />
    <vehicle id="right_42" type="typeWE" route="right" depart="226" />
    <vehicle id="down_43" type="typeNS" route="down" depart="227" color="1,0,0"/>
    <vehicle id="right_44" type="typeWE" route="right" depart="230" />
    <vehicle id="right_45" type="typeWE" route="right" depart="237" />
    <vehicle id="right_46" type="typeWE" route="right" depart="245" />
    <vehicle id="left_47" type="typeWE" route="left" depart="259" />
    <vehicle id="right_48" type="typeWE" route="right" depart="260" />
    <vehicle id="right_49" type="typeWE" route="right" depart="262" />
    <vehicle id="right_50" type="typeWE" route="right" depart="269" />
    <vehicle id="right_51" type="typeWE" route="right" depart="271" />
    <vehicle id="left_52" type="typeWE" route="left" depart="274" />
    <vehicle id="left_53" type="typeWE" route="left" depart="275" />
    <vehicle id="right_54" type="typeWE" route="right" depart="277" />
    <vehicle id="right_55" type="typeWE" route="right" depart="285" />
    <vehicle id="left_56" type="typeWE" route="left" depart="286" />
    <vehicle id="right_57" type="typeWE" route="right" depart="301" />
    <vehicle id="left_58" type="typeWE" route="left" depart="304" />
    <vehicle id="left_59" type="typeWE" route="left" depart="309" />
    <vehicle id="left_60" type="typeWE" route="left" depart="311" />
    <vehicle id="left_61" type="typeWE" route="left" depart="318" />
    <vehicle id="left_62" type="typeWE" route="left" depart="319" />
    <vehicle id="left_63" type="typeWE" route="left" depart="332" />
    <vehicle id="down_64" type="typeNS" route="down" depart="338" color="1,0,0"/>
    <vehicle id="left_65" type="typeWE" route="left" depart="342" />
    <vehicle id="left_66" type="typeWE" route="left" depart="345" />
    <vehicle id="down_67" type="typeNS" route="down" depart="348" color="1,0,0"/>
    <vehicle id="right_68" type="typeWE" route="right" depart="358" />
    <vehicle id="left_69" type="typeWE" route="left" depart="359" />
    <vehicle id="left_70" type="typeWE" route="left" depart="360" />
    <vehicle id="down_71" type="typeNS" route="down" depart="368" color="1,0,0"/>
    <vehicle id="right_72" type="typeWE" route="right" depart="377" />
    <vehicle id="right_73" type="typeWE" route="right" depart="387" />
    <vehicle id="left_74" type="typeWE" route="left" depart="396" />
    <vehicle id="right_75" type="typeWE" route="right" depart="402" />
    <vehicle id="right_76" type="typeWE" route="right" depart="403" />
    <vehicle id="down_77" type="typeNS" route="down" depart="410" color="1,0,0"/>
    <vehicle id="down_78" type="typeNS" route="down" depart="422" color="1,0,0"/>
    <vehicle id="right_79" type="typeWE" route="right" depart="428" />
    <vehicle id="down_80" type="typeNS" route="down" depart="428" color="1,0,0"/>
    <vehicle id="left_81" type="typeWE" route="left" depart="431" />
    <vehicle id="left_82" type="typeWE" route="left" depart="435" />
    <vehicle id="right_83" type="typeWE" route="right" depart="442" />
    <vehicle id="left_84" type="typeWE" route="left" depart="453" />
    <vehicle id="down_85" type="typeNS" route="down" depart="460" color="1,0,0"/>
    <vehicle id="right_86" type="typeWE" route="right" depart="464" />
    <vehicle id="left_87" type="typeWE" route="left" depart="464" />
    <vehicle id="left_88" type="typeWE" route="left" depart="468" />
    <vehicle id="down_89" type="typeNS" route="down" depart="475" color="1,0,0"/>
    <vehicle id="right_90" type="typeWE" route="right" depart="477" />
    <vehicle id="left_91" type="typeWE" route="left" depart="480" />
    <vehicle id="right_92" type="typeWE" route="right" depart="481" />
    <vehicle id="left_93" type="typeWE" route="left" depart="482" />
    <vehicle id="right_94" type="typeWE" route="right" depart="483" />
    <vehicle id="left_95" type="typeWE" route="left" depart="484" />
    <vehicle id="right_96" type="typeWE" route="right" depart="486" />
    <vehicle id="down_97" type="typeNS" route="down" depart="486" color="1,0,0"/>
    <vehicle id="right_98" type="typeWE" route="right" depart="500" />
    <vehicle id="right_99" type="typeWE" route="right" depart="505" />
    <vehicle id="right_100" type="typeWE" route="right" depart="507" />
    <vehicle id="right_101" type="typeWE" route="right" depart="523" />
    <vehicle id="left_102" type="typeWE" route="left" depart="526" />
    <vehicle id="down_103" type="typeNS" route="down" depart="531" color="1,0,0"/>
    <vehicle id="right_104" type="typeWE" route="right" depart="555" />
    <vehicle id="left_105" type="typeWE" route="left" depart="555" />
    <vehicle id="left_106" type="typeWE" route="left" depart="557" />
    <vehicle id="right_107" type="typeWE" route="right" depart="565" />
    <vehicle id="right_108" type="typeWE" route="right" depart="566" />
    <vehicle id="left_109" type="typeWE" route="left" depart="570" />
    <vehicle id="left_110" type="typeWE" route="left" depart="576" />
    <vehicle id="left_111" type="typeWE" route="left" depart="577" />
    <vehicle id="right_112" type="typeWE" route="right" depart="580" />
    <vehicle id="down_113" type="typeNS" route="down" depart="583" color="1,0,0"/>
    <vehicle id="right_114" type="typeWE" route="right" depart="586" />
    <vehicle id="right_115" type="typeWE" route="right" depart="592" />
    <vehicle id="right_116" type="typeWE" route="right" depart="602" />
    <vehicle id="left_117" type="typeWE" route="left" depart="604" />
    <vehicle id="right_118" type="typeWE" route="right" depart="609" />
    <vehicle id="left_119" type="typeWE" route="left" depart="610" />
    <vehicle id="right_120" type="typeWE" route="right" depart="613" />
    <vehicle id="left_121" type="typeWE" route="left" depart="622" />
    <vehicle id="left_122" type="typeWE" route="left" depart="627" />
    <vehicle id="right_123" type="typeWE" route="right" depart="628" />
    <vehicle id="right_124" type="typeWE" route="right" depart="633" />
    <vehicle id="left_125" type="typeWE" route="left" depart="634" />
    <vehicle id="right_126" type="typeWE" route="right" depart="635" />
    <vehicle id="right_127" type="typeWE" route="right" depart="636" />
    <vehicle id="right_128" type="typeWE" route="right" depart="638" />
    <vehicle id="right_129" type="typeWE" route="right" depart="639" />
    <vehicle id="right_130" type="typeWE" route="right" depart="647" />
    <vehicle id="left_131" type="typeWE" route="left" depart="650" />
    <vehicle id="left_132" type="typeWE" route="left" depart="651" />
    <vehicle id="left_133" type="typeWE" route="left" depart="653" />
    <vehicle id="left_134" type="typeWE" route="left" depart="655" />
    <vehicle id="left_135" type="typeWE" route="left" depart="658" />
    <vehicle id="left_136" type="typeWE" route="left" depart="669" />
    <vehicle id="left_137" type="typeWE" route="left" depart="671" />
    <vehicle id="right_138" type="typeWE" route="right" depart="682" />
    <vehicle id="left_139" type="typeWE" route="left" depart="690" />
    <vehicle id="left_140" type="typeWE" route="left" depart="691" />
    <vehicle id="left_141" type="typeWE" route="left" depart="702" />
    <vehicle id="right_142" type="typeWE" route="right" depart="704" />
    <vehicle id="right_143" type="typeWE" route="right" depart="709" />
    <vehicle id="left_144" type="typeWE" route="left" depart="713" />
    <vehicle id="left_145" type="typeWE" route="left" depart="726" />
    <vehicle id="left_146" type="typeWE" route="left" depart="729" />
    <vehicle id="left_147" type="typeWE" route="left" depart="731" />
    <vehicle id="right_148" type="typeWE" route="right" depart="732" />
    <vehicle id="right_149" type="typeWE" route="right" depart="735" />
    <vehicle id="left_150" type="typeWE" route="left" depart="740" />
    <vehicle id="right_151" type="typeWE" route="right" depart="744" />
    <vehicle id="left_152" type="typeWE" route="left" depart="744" />
    <vehicle id="right_153" type="typeWE" route="right" depart="745" />
    <vehicle id="right_154" type="typeWE" route="right" depart="747" />
    <vehicle id="right_155" type="typeWE" route="right" depart="752" />
    <vehicle id="left_156" type="typeWE" route="left" depart="754" />
    <vehicle id="right_157" type="typeWE" route="right" depart="755" />
    <vehicle id="right_158" type="typeWE" route="right" depart="757" />
    <vehicle id="right_159" type="typeWE" route="right" depart="758" />
    <vehicle id="left_160" type="typeWE" route="left" depart="759" />
    <vehicle id="left_161" type="typeWE" route="left" depart="760" />
    <vehicle id="right_162" type="typeWE" route="right" depart="761" />
    <vehicle id="down_163" type="typeNS" route="down" depart="761" color="1,0,0"/>
    <vehicle id="right_164" type="typeWE" route="right" depart="767" />
    <vehicle id="left_165" type="typeWE" route="left" depart="767" />
    <vehicle id="right_166" type="typeWE" route="right" depart="768" />
    <vehicle id="right_167" type="typeWE" route="right" depart="771" />
    <vehicle id="left_168" type="typeWE" route="left" depart="774" />
    <vehicle id="left_169" type="typeWE" route="left" depart="777" />
    <vehicle id="left_170" type="typeWE" route="left" depart="779" />
    <vehicle id="left_171" type="typeWE" route="left" depart="790" />
    <vehicle id="right_172" type="typeWE" route="right" depart="810" />
    <vehicle id="right_173" type="typeWE" route="right" depart="831" />
    <vehicle id="left_174" type="typeWE" route="left" depart="831" />
    <vehicle id="down_175" type="typeNS" route="down" depart="833" color="1,0,0"/>
    <vehicle id="left_176" type="typeWE" route="left" depart="840" />
    <vehicle id="right_177" type="typeWE" route="right" depart="844" />
    <vehicle id="left_178" type="typeWE" route="left" depart="848" />
    <vehicle id="left_179" type="typeWE" route="left" depart="853" />
    <vehicle id="right_180" type="typeWE" route="right" depart="870" />
    <vehicle id="right_181" type="typeWE" route="right" depart="872" />
    <vehicle id="down_182" type="typeNS" route="down" depart="873" color="1,0,0"/>
    <vehicle id="left_183" type="typeWE" route="left" depart="877" />
    <vehicle id="left_184" type="typeWE" route="left" depart="886" />
    <vehicle id="right_185" type="typeWE" route="right" depart="888" />
    <vehicle id="right_186" type="typeWE" route="right" depart="908" />
    <vehicle id="left_187" type="typeWE" route="left" depart="908" />
    <vehicle id="right_188" type="typeWE" route="right" depart="909" />
    <vehicle id="left_189" type="typeWE" route="left" depart="912" />
    <vehicle id="left_190" type="typeWE" route="left" depart="928" />
    <vehicle id="left_191" type="typeWE" route="left" depart="940" />
    <vehicle id="down_192" type="typeNS" route="down" depart="945" color="1,0,0"/>
    <vehicle id="right_193" type="typeWE" route="right" depart="954" />
    <vehicle id="left_194" type="typeWE" route="left" depart="954" />
    <vehicle id="right_195" type="typeWE" route="right" depart="965" />
    <vehicle id="left_196" type="typeWE" route="left" depart="965" />
    <vehicle id="right_197" type="typeWE" route="right" depart="969" />
    <vehicle id="down_198" type="typeNS" route="down" depart="971" color="1,0,0"/>
    <vehicle id="right_199" type="typeWE" route="right" depart="974" />
    <vehicle id="right_200" type="typeWE" route="right" depart="982" />
    <vehicle id="right_201" type="typeWE" route="right" depart="987" />
    <vehicle id="left_202" type="typeWE" route="left" depart="987" />
    <vehicle id="right_203" type="typeWE" route="right" depart="989" />
    <vehicle id="right_204" type="typeWE" route="right" depart="991" />
    <vehicle id="right_205" type="typeWE" route="right" depart="993" />
    <vehicle id="down_206" type="typeNS" route="down" depart="1006" color="1,0,0"/>
    <vehicle id="left_207" type="typeWE" route="left" depart="1012" />
    <vehicle id="right_208" type="typeWE" route="right" depart="1026" />
    <vehicle id="left_209" type="typeWE" route="left" depart="1031" />
    <vehicle id="right_210" type="typeWE" route="right" depart="1033" />
    <vehicle id="left_211" type="typeWE" route="left" depart="1041" />
    <vehicle id="left_212" type="typeWE" route="left" depart="1042" />
    <vehicle id="right_213" type="typeWE" route="right" depart="1044" />
    <vehicle id="right_214" type="typeWE" route="right" depart="1045" />
    <vehicle id="right_215" type="typeWE" route="right" depart="1047" />
    <vehicle id="down_216" type="typeNS" route="down" depart="1049" color="1,0,0"/>
    <vehicle id="right_217" type="typeWE" route="right" depart="1061" />
    <vehicle id="right_218" type="typeWE" route="right" depart="1065" />
    <vehicle id="left_219" type="typeWE" route="left" depart="1067" />
    <vehicle id="right_220" type="typeWE" route="right" depart="1069" />
    <vehicle id="left_221" type="typeWE" route="left" depart="1069" />
    <vehicle id="down_222" type="typeNS" route="down" depart="1071" color="1,0,0"/>
    <vehicle id="left_223" type="typeWE" route="left" depart="1072" />
    <vehicle id="right_224" type="typeWE" route="right" depart="1075" />
    <vehicle id="right_225" type="typeWE" route="right" depart="1078" />
    <vehicle id="right_226" type="typeWE" route="right" depart="1086" />
    <vehicle id="right_227" type="typeWE" route="right" depart="1089" />
    <vehicle id="right_228" type="typeWE" route="right" depart="1094" />
    <vehicle id="right_229" type="typeWE" route="right" depart="1095" />
    <vehicle id="right_230" type="typeWE" route="right" depart="1096" />
    <vehicle id="right_231" type="typeWE" route="right" depart="1099" />
    <vehicle id="left_232" type="typeWE" route="left" depart="1099" />
    <vehicle id="down_233" type="typeNS" route="down" depart="1100" color="1,0,0"/>
    <vehicle id="down_234" type="typeNS" route="down" depart="1102" color="1,0,0"/>
    <vehicle id="right_235" type="typeWE" route="right" depart="1104" />
    <vehicle id="right_236" type="typeWE" route="right" depart="1106" />
    <vehicle id="left_237" type="typeWE" route="left" depart="1120" />
    <vehicle id="left_238" type="typeWE" route="left" depart="1125" />
    <vehicle id="left_239" type="typeWE" route="left" depart="1129" />
    <vehicle id="down_240" type="typeNS" route="down" depart="1129" color="1,0,0"/>
    <vehicle id="left_241" type="typeWE" route="left" depart="1131" />
    <vehicle id="right_242" type="typeWE" route="right" depart="1136" />
    <vehicle id="right_243" type="typeWE" route="right" depart="1142" />
    <vehicle id="left_244" type="typeWE" route="left" depart="1145" />
    <vehicle id="left_245" type="typeWE" route="left" depart="1146" />
    <vehicle id="down_246" type="typeNS" route="down" depart="1147" color="1,0,0"/>
    <vehicle id="left_247" type="typeWE" route="left" depart="1148" />
    <vehicle id="left_248" type="typeWE" route="left" depart="1149" />
    <vehicle id="right_249" type="typeWE" route="right" depart="1150" />
    <vehicle id="left_250" type="typeWE" route="left" depart="1153" />
    <vehicle id="left_251" type="typeWE" route="left" depart="1156" />
    <vehicle id="right_252" type="typeWE" route="right" depart="1159" />
    <vehicle id="left_253" type="typeWE" route="left" depart="1163" />
    <vehicle id="down_254" type="typeNS" route="down" depart="1163" color="1,0,0"/>
    <vehicle id="right_255" type="typeWE" route="right" depart="1167" />
    <vehicle id="right_256" type="typeWE" route="right" depart="1171" />
    <vehicle id="down_257" type="typeNS" route="down" depart="1175" color="1,0,0"/>
    <vehicle id="left_258" type="typeWE" route="left" depart="1177" />
    <vehicle id="right_259" type="typeWE" route="right" depart="1178" />
    <vehicle id="left_260" type="typeWE" route="left" depart="1178" />
    <vehicle id="left_261" type="typeWE" route="left" depart="1189" />
    <vehicle id="left_262" type="typeWE" route="left" depart="1190" />
    <vehicle id="down_263" type="typeNS" route="down" depart="1191" color="1,0,0"/>
    <vehicle id="left_264" type="typeWE" route="left" depart="1197" />
    <vehicle id="left_265" type="typeWE" route="left" depart="1199" />
    <vehicle id="right_266" type="typeWE" route="right" depart="1201" />
    <vehicle id="left_267" type="typeWE" route="left" depart="1201" />
    <vehicle id="right_268" type="typeWE" route="right" depart="1204" />
    <vehicle id="left_269" type="typeWE" route="left" depart="1207" />
    <vehicle id="right_270" type="typeWE" route="right" depart="1210" />
    <vehicle id="down_271" type="typeNS" route="down" depart="1214" color="1,0,0"/>
    <vehicle id="left_272" type="typeWE" route="left" depart="1215" />
    <vehicle id="down_273" type="typeNS" route="down" depart="1222" color="1,0,0"/>
    <vehicle id="right_274" type="typeWE" route="right" depart="1225" />
    <vehicle id="right_275" type="typeWE" route="right" depart="1227" />
    <vehicle id="down_276" type="typeNS" route="down" depart="1228" color="1,0,0"/>
    <vehicle id="left_277" type="typeWE" route="left" depart="1241" />
    <vehicle id="down_278" type="typeNS" route="down" depart="1246" color="1,0,0"/>
    <vehicle id="right_279" type="typeWE" route="right" depart="1250" />
    <vehicle id="right_280" type="typeWE" route="right" depart="1251" />
    <vehicle id="left_281" type="typeWE" route="left" depart="1263" />
    <vehicle id="left_282" type="typeWE" route="left" depart="1264" />
    <vehicle id="right_283" type="typeWE" route="right" depart="1265" />
    <vehicle id="right_284" type="typeWE" route="right" depart="1272" />
    <vehicle id="left_285" type="typeWE" route="left" depart="1275" />
    <vehicle id="right_286" type="typeWE" route="right" depart="1278" />
    <vehicle id="left_287" type="typeWE" route="left" depart="1279" />
    <vehicle id="right_288" type="typeWE" route="right" depart="1280" />
    <vehicle id="left_289" type="typeWE" route="left" depart="1280" />
    <vehicle id="down_290" type="typeNS" route="down" depart="1280" color="1,0,0"/>
    <vehicle id="right_291" type="typeWE" route="right" depart="1286" />
    <vehicle id="left_292" type="typeWE" route="left" depart="1292" />
    <vehicle id="right_293" type="typeWE" route="right" depart="1307" />
    <vehicle id="left_294" type="typeWE" route="left" depart="1312" />
    <vehicle id="left_295" type="typeWE" route="left" depart="1313" />
    <vehicle id="right_296" type="typeWE" route="right" depart="1319" />
    <vehicle id="right_297" type="typeWE" route="right" depart="1326" />
    <vehicle id="right_298" type="typeWE" route="right" depart="1333" />
    <vehicle id="left_299" type="typeWE" route="left" depart="1336" />
    <vehicle id="left_300" type="typeWE" route="left" depart="1343" />
    <vehicle id="left_301" type="typeWE" route="left" depart="1345" />
    <vehicle id="left_302" type="typeWE" route="left" depart="1351" />
    <vehicle id="right_303" type="typeWE" route="right" depart="1357" />
    <vehicle id="right_304" type="typeWE" route="right" depart="1358" />
    <vehicle id="down_305" type="typeNS" route="down" depart="1358" color="1,0,0"/>
    <vehicle id="right_306" type="typeWE" route="right" depart="1359" />
    <vehicle id="left_307" type="typeWE" route="left" depart="1362" />
    <vehicle id="right_308" type="typeWE" route="right" depart="1363" />
    <vehicle id="right_309" type="typeWE" route="right" depart="1366" />
    <vehicle id="left_310" type="typeWE" route="left" depart="1373" />
    <vehicle id="right_311" type="typeWE" route="right" depart="1374" />
    <vehicle id="down_312" type="typeNS" route="down" depart="1374" color="1,0,0"/>
    <vehicle id="left_313" type="typeWE" route="left" depart="1376" />
    <vehicle id="left_314" type="typeWE" route="left" depart="1379" />
    <vehicle id="right_315" type="typeWE" route="right" depart="1381" />
    <vehicle id="down_316" type="typeNS" route="down" depart="1381" color="1,0,0"/>
    <vehicle id="right_317" type="typeWE" route="right" depart="1384" />
    <vehicle id="left_318" type="typeWE" route="left" depart="1388" />
    <vehicle id="down_319" type="typeNS" route="down" depart="1390" color="1,0,0"/>
    <vehicle id="left_320" type="typeWE" route="left" depart="1395" />
    <vehicle id="left_321" type="typeWE" route="left" depart="1396" />
    <vehicle id="right_322" type="typeWE" route="right" depart="1404" />
    <vehicle id="right_323" type="typeWE" route="right" depart="1408" />
    <vehicle id="right_324" type="typeWE" route="right" depart="1411" />
    <vehicle id="down_325" type="typeNS" route="down" depart="1412" color="1,0,0"/>
    <vehicle id="right_326" type="typeWE" route="right" depart="1415" />
    <vehicle id="left_327" type="typeWE" route="left" depart="1421" />
    <vehicle id="right_328" type="typeWE" route="right" depart="1426" />
    <vehicle id="right_329" type="typeWE" route="right" depart="1427" />
    <vehicle id="left_330" type="typeWE" route="left" depart="1427" />
    <vehicle id="right_331" type="typeWE" route="right" depart="1435" />
    <vehicle id="left_332" type="typeWE" route="left" depart="1436" />
    <vehicle id="right_333" type="typeWE" route="right" depart="1442" />
    <vehicle id="right_334" type="typeWE" route="right" depart="1453" />
    <vehicle id="left_335" type="typeWE" route="left" depart="1454" />
    <vehicle id="left_336" type="typeWE" route="left" depart="1461" />
    <vehicle id="down_337" type="typeNS" route="down" depart="1470" color="1,0,0"/>
    <vehicle id="left_338" type="typeWE" route="left" depart="1473" />
    <vehicle id="right_339" type="typeWE" route="right" depart="1474" />
    <vehicle id="left_340" type="typeWE" route="left" depart="1477" />
    <vehicle id="right_341" type="typeWE" route="right" depart="1479" />
    <vehicle id="left_342" type="typeWE" route="left" depart="1488" />
    <vehicle id="right_343" type="typeWE" route="right" depart="1495" />
    <vehicle id="right_344" type="typeWE" route="right" depart="1496" />
    <vehicle id="left_345" type="typeWE" route="left" depart="1497" />
    <vehicle id="right_346" type="typeWE" route="right" depart="1500" />
    <vehicle id="left_347" type="typeWE" route="left" depart="1500" />
    <vehicle id="left_348" type="typeWE" route="left" depart="1502" />
    <vehicle id="right_349" type="typeWE" route="right" depart="1503" />
    <vehicle id="right_350" type="typeWE" route="right" depart="1506" />
    <vehicle id="right_351" type="typeWE" route="right" depart="1514" />
    <vehicle id="down_352" type="typeNS" route="down" depart="1515" color="1,0,0"/>
    <vehicle id="left_353" type="typeWE" route="left" depart="1521" />
    <vehicle id="left_354" type="typeWE" route="left" depart="1523" />
    <vehicle id="right_355" type="typeWE" route="right" depart="1527" />
    <vehicle id="down_356" type="typeNS" route="down" depart="1528" color="1,0,0"/>
    <vehicle id="left_357" type="typeWE" route="left" depart="1531" />
    <vehicle id="right_358" type="typeWE" route="right" depart="1532" />
    <vehicle id="right_359" type="typeWE" route="right" depart="1535" />
    <vehicle id="down_360" type="typeNS" route="down" depart="1535" color="1,0,0"/>
    <vehicle id="right_361" type="typeWE" route="right" depart="1542" />
    <vehicle id="right_362" type="typeWE" route="right" depart="1548" />
    <vehicle id="down_363" type="typeNS" route="down" depart="1560" color="1,0,0"/>
    <vehicle id="left_364" type="typeWE" route="left" depart="1571" />
    <vehicle id="left_365" type="typeWE" route="left" depart="1576" />
    <vehicle id="left_366" type="typeWE" route="left" depart="1597" />
    <vehicle id="right_367" type="typeWE" route="right" depart="1609" />
    <vehicle id="down_368" type="typeNS" route="down" depart="1613" color="1,0,0"/>
    <vehicle id="right_369" type="typeWE" route="right" depart="1616" />
    <vehicle id="left_370" type="typeWE" route="left" depart="1627" />
    <vehicle id="right_371" type="typeWE" route="right" depart="1628" />
    <vehicle id="right_372" type="typeWE" route="right" depart="1629" />
    <vehicle id="left_373" type="typeWE" route="left" depart="1634" />
    <vehicle id="left_374" type="typeWE" route="left" depart="1648" />
    <vehicle id="right_375" type="typeWE" route="right" depart="1659" />
    <vehicle id="right_376" type="typeWE" route="right" depart="1660" />
    <vehicle id="down_377" type="typeNS" route="down" depart="1662" color="1,0,0"/>
    <vehicle id="right_378" type="typeWE" route="right" depart="1669" />
    <vehicle id="left_379" type="typeWE" route="left" depart="1677" />
    <vehicle id="right_380" type="typeWE" route="right" depart="1679" />
    <vehicle id="down_381" type="typeNS" route="down" depart="1688" color="1,0,0"/>
    <vehicle id="down_382" type="typeNS" route="down" depart="1689" color="1,0,0"/>
    <vehicle id="right_383" type="typeWE" route="right" depart="1690" />
    <vehicle id="down_384" type="typeNS" route="down" depart="1690" color="1,0,0"/>
    <vehicle id="left_385" type="typeWE" route="left" depart="1692" />
    <vehicle id="right_386" type="typeWE" route="right" depart="1697" />
    <vehicle id="right_387" type="typeWE" route="right" depart="1699" />
    <vehicle id="down_388" type="typeNS" route="down" depart="1700" color="1,0,0"/>
    <vehicle id="left_389" type="typeWE" route="left" depart="1702" />
    <vehicle id="left_390" type="typeWE" route="left" depart="1707" />
    <vehicle id="right_391" type="typeWE" route="right" depart="1727" />
    <vehicle id="left_392" type="typeWE" route="left" depart="1748" />
    <vehicle id="right_393" type="typeWE" route="right" depart="1749" />
    <vehicle id="left_394" type="typeWE" route="left" depart="1750" />
    <vehicle id="left_395" type="typeWE" route="left" depart="1756" />
    <vehicle id="left_396" type="typeWE" route="left" depart="1757" />
    <vehicle id="down_397" type="typeNS" route="down" depart="1762" color="1,0,0"/>
    <vehicle id="right_398" type="typeWE" route="right" depart="1763" />
    <vehicle id="right_399" type="typeWE" route="right" depart="1764" />
    <vehicle id="left_400" type="typeWE" route="left" depart="1764" />
    <vehicle id="left_401" type="typeWE" route="left" depart="1768" />